    26
        -50.44324615  Gyration_radius:  2.71530837924 Dipole_moment: 7.356
 S           1.33318619924139   -1.32174652283170    0.52288776833855
O           1.42711432119946   -0.04344139372361    1.18542232000807
O           0.23079189001219   -2.14220720160307    0.90133597208718
O           1.29014736419500   -1.05366695038202   -1.01629856212125
O           2.64932174360255   -2.07709082849416    0.65887249533908
H           3.38021179459350   -1.34496105040315    0.58262340109479
H           0.46277040044300   -0.55827702623224   -1.28927600676455
O          -0.77476474622361    0.38273041389689   -1.67541603950197
H          -0.52080547065874    0.85337063699111   -2.47186979345096
O          -2.67785252154321    1.16116727044423    1.32390746525917
H          -2.58386475548581    0.20117217809924    1.17770364181145
H          -3.24475318752364    1.45882278658830    0.59633779619798
O          -2.24923703978018   -1.31354094856959    0.18734430514441
H          -1.51892680414357   -1.77835433954426    0.62421886796334
H          -1.87975273576236   -1.01166848902599   -0.64911305745430
O          -3.65258720393062    0.94218330509142   -1.29478402500173
H          -2.74140818712043    0.78995421778840   -1.57651762206885
H          -4.00382190533783    0.08057335978217   -1.05517702116501
O          -0.32502588953348    1.83353845119147    0.34500389102872
H          -0.62165622739847    1.04012178876856   -0.89211493829105
H          -1.17374243556607    1.72213809624829    0.84895781079251
H           0.33109050666017    1.28172388746914    0.80552251601701
N           4.14855213325874   -0.02082703038241    0.52850729603495
H           4.93461411560599    0.08431443662353    1.15582564737455
H           3.36636739524797    0.53229385696251    0.86828945018818
H           4.41403127594580    0.30167710524759   -0.39219359885933
