    26
        -50.44727654  Gyration_radius:  2.46790521678 Dipole_moment: 3.880
 S           1.65862415345406   -1.42152894784102    0.73074590521663
O           1.90588803586235   -1.87014256518122   -0.61023465221922
O           2.62487929067434   -1.67543922992579    1.73175734614684
O           1.38829947473789    0.12163157137114    0.66824347319694
O           0.30053188098154   -1.98073937532967    1.22314280500678
H          -0.41462320008178   -1.79978811349498    0.53517843662824
H           1.35387830454919    0.44815007402855   -0.28785215601395
O          -1.57487660227687   -1.39189948136028   -0.41317520117856
H          -2.32169301043008   -1.98292733454059   -0.30105849142990
O           0.16669214344562   -1.25458699423531   -2.54751831887153
H          -0.63673239945514   -1.31348174206868   -2.00773689448003
H           0.84620870250437   -1.73139636232972   -2.03566953526636
O           1.31541994344315    0.92667104889233   -1.76609093010072
H           0.81222673677414    0.16639347798457   -2.18978109964118
H           2.21061530158082    0.86539255906101   -2.10645237671563
O          -0.30437738265124    0.30346175763343    2.85465932479196
H          -0.26789077858942   -0.59951993108028    3.17904807034517
H           0.43894946267324    0.39157479243145    2.24285611575116
O          -2.12828614978151    0.72713107869450    0.86032876443681
H          -1.69988470328650    1.48406881930600    0.38760703097619
H          -1.84202794872601   -0.51201159147327    0.04779374755431
H          -1.62048379823988    0.62866117461488    1.68928851862565
N          -0.72577459616846    2.68727126501974   -0.36230951355281
H          -0.19980438687834    3.16927186999647    0.35609348405583
H          -1.22668358277187    3.38158560932771   -0.90203738830128
H          -0.05907490133839    2.23219656050199   -0.97682647497896
