    26
        -50.44521959  Gyration_radius:  2.60065661832 Dipole_moment: 8.092
 S           1.28439729139267   -0.41457106594441   -0.62771930299789
O           1.70938046355117    0.37914352157770    0.49796892001052
O           0.75129459596332   -1.70211277753245   -0.33630250541905
O           0.24672514676666    0.41816055785610   -1.44110777311328
O           2.42503566399441   -0.53490489200639   -1.64076529022407
H           2.92328518093935    0.36519932221559   -1.60261346627753
H          -0.50477821331091    0.76490754103317   -0.85136578697915
O          -1.57672183891963    1.32855364210123    0.09589138308293
H          -1.67926603680200    2.27885351094710    0.02152205509118
O          -3.01398919170434   -1.11719032266202    0.36441978561683
H          -2.62311182998617   -1.61399278445422   -0.37965245109889
H          -2.76818338497093   -0.19674262849200    0.21027924696319
O          -1.53301280091821   -2.05572033106337   -1.72401161382262
H          -1.35876086502349   -1.36089371317658   -2.36242032371197
H          -0.71682121772991   -2.14403298620290   -1.20075949219195
O          -1.59695529513872   -1.53680860657017    2.59119706478584
H          -2.12825094918787   -1.50065976639147    1.75992216092177
H          -2.22562233022832   -1.67157837361308    3.30161866070608
O          -0.33719307469714    0.77599711332740    2.24445099572814
H           0.52077608671455    0.58677006402031    1.82988134612719
H          -1.14362922274370    1.15304984144445    1.00790314412032
H          -0.71927005426797   -0.10032213557203    2.49145508180789
N           3.46275515979161    1.76105856320889   -1.19203631871581
H           3.01477034067764    1.72886539585497   -0.27997068225942
H           3.12408927261426    2.56280353587682   -1.70639506919779
H           4.46305710319063    1.84616780422444   -1.07138977894962
