    26
        -50.44438652  Gyration_radius:  2.51384344838 Dipole_moment: 5.861
 S           2.43157334581243    0.13439518270362   -0.76670461413633
O           2.24808573951679   -0.44929007999201    0.53153238823821
O           3.52575970931299   -0.31487622941129   -1.54549927309948
O           1.08616928628889   -0.07112782833046   -1.56643442066862
O           2.46120038606799    1.67226413802779   -0.65481951512579
H           1.67552892672783    1.93376087348912   -0.09635060727076
H           0.62930234597642   -0.91106404266855   -1.25644462773669
O          -0.17247837773553   -2.17484528216743   -0.77005505016203
H           0.21363394484157   -2.97860907329330   -1.12139148040068
O          -2.45598892182972   -0.63475242070722   -0.68265768525592
H          -3.15925941021580   -1.02553263358752   -1.20330305102886
H          -1.70227004632946   -1.25065500795015   -0.71856028913159
O           0.29186428173987    2.41164337561543    0.56380674451906
H          -0.32547518893302    2.17718510333174   -0.18731825099528
H           0.31701015509369    3.36978419536158    0.60456126258772
O          -1.12242522104753    1.61629207192160   -1.48115601137224
H          -0.37528288293739    1.15284103157318   -1.88435486064169
H          -1.72749714316769    0.90986579004477   -1.18511393414009
O           0.39607471511286   -2.00872888293171    1.68679940364132
H           1.23730303890593   -1.54962369638610    1.52354031485510
H          -0.22553693061486   -1.28381550319361    1.96308188946513
H           0.02744908124323   -2.17770194191162    0.24514590693116
N          -1.18159897367506    0.13114927735931    2.02958955413561
H          -1.64630742784640    0.37869429493601    2.89311770289338
H          -1.88518097976915    0.04988598441577    1.30405918656832
H          -0.56165345252765    0.89286131371475    1.77492930739952
