    26
        -50.45522893  Gyration_radius:  2.40585074342 Dipole_moment: 4.829
 S           1.76288225803412   -0.76654255479308    0.07132709895797
O           0.35401214304059   -1.14900245860795    0.27262776009740
O           2.65365486298633   -1.87502624477948    0.08027516476556
O           1.83570974856757    0.02343117877362   -1.18975015940331
O           2.12786519530938    0.21101543035017    1.22086892635460
H           1.38347383762645    0.85514127530167    1.29866822419102
H           0.98611845125479   -0.62518856703975   -2.14694090080846
O           0.16453894121293    1.94831621023270    1.51932396567907
H           0.32173250221513    2.36641886147725    2.36751729092663
O          -1.55053282812702   -0.05549063165510   -1.10450726352094
H          -0.94026249840144   -0.49605857962408   -0.46143157135351
H          -1.17290775315077    0.85482562899357   -1.19454086431868
O           0.05742774413665    2.03892553074897   -1.24034403609064
H           0.83425356652685    1.44739365137383   -1.28345619485320
H           0.06982600550559    2.39655545128323   -0.34299238250426
O          -0.73393951104502   -1.39908778064697    2.65835398083386
H          -0.82770685417080   -2.32543452807791    2.88203630063425
H          -0.22928536086859   -1.36786872255136    1.81669651357321
O          -2.12856490560867    0.69474818313095    1.67451434907483
H          -2.34349590053905    0.39691818078034    0.78161516803687
H          -1.80418101066717   -0.08950943653956    2.15803361398575
H          -0.72762727452637    1.50055722360680    1.59629114409706
N           0.17108374185036   -1.06490857496887   -2.75815968366120
H          -0.71342961240771   -0.71041073150739   -2.24377983264626
H           0.23384499425959   -2.07707204699081   -2.71600102620704
H           0.21550951698732   -0.73264593827484   -3.71624556584156
