    26
        -50.45958877  Gyration_radius:  2.41994649217 Dipole_moment: 7.270
 S          -0.66414772039316    1.02323706220536    1.40261812202544
O          -0.10208084227645    1.66322221083083    0.21259136043897
O          -2.09874754831972    1.05101967279917    1.44174194520376
O          -0.07526759315500   -0.29634519200729    1.59431066407469
O          -0.16533633085862    1.88319866333527    2.63874268476942
H          -0.91764310834811    2.45264836448354    2.75178660495234
H          -0.49986412565875   -1.40426117662924    0.48570051760523
O          -0.73471690258084   -2.03353770571720   -0.23743188438917
H          -0.85461306833656   -2.89210982340014    0.17045073049566
O          -2.89492773343178   -0.29094885582707   -0.77787585734902
H          -2.78444237659127    0.22129587942183    0.04235319920659
H          -2.33584121709289   -1.07359799715008   -0.67679818531659
O          -1.19600102818915    1.11812582401351   -2.28650682733132
H          -1.98684355109087    0.65008848910871   -1.93965352178097
H          -0.85265401979377    1.60120555011259   -1.52047625870837
O           1.97833231238201    0.65803615030543   -0.81099328097332
H           2.36154242244616    0.07039581586366   -0.03039832294711
H           1.20121824086058    1.16792918648180   -0.39162038710996
O           0.58620973525695   -0.77121214246761   -2.27807893308175
H          -0.10517347062693   -0.07181074181329   -2.48141387641013
H           1.46687753250546    0.00118978983334   -1.51151660320863
H           0.14172738307583   -1.38597676120402   -1.66739051630317
N           2.64785537035750   -0.71515828464734    1.23214717188670
H           2.90916760604039   -1.68772793794207    1.13798414738073
H           1.69726573340689   -0.66318863452330    1.61001457644594
H           3.27810431041413   -0.27571738546683    1.88971273042693
