    26
        -50.45958870  Gyration_radius:  2.41998777263 Dipole_moment: 7.269
 S           1.32373009632105    0.50742370882408   -1.20339947647558
O          -0.01203316684380    1.10185481762838   -1.26855011599084
O           2.30628711807203    1.37497483793484   -0.61824201541074
O           1.25778318786615   -0.82362344367387   -0.61291145146254
O           1.77171975691221    0.27199203298265   -2.70682552200779
H           2.27466298855318    1.06538776205578   -2.85058206375238
H           0.88759251203289   -0.85504490558964    0.96783153852164
O           0.60499045746162   -0.83766873584394    1.91329603481960
H           1.10558671067718   -1.51856577153682    2.36458328541286
O           1.40488481027761    1.87457343173426    1.89146050316789
H           1.85809022463744    1.81175626200714    1.03234913086295
H           1.21661509437012    0.96387484072220    2.15700201153615
O          -2.00564471008176   -0.40684345441240   -0.90132967984542
H          -1.60776944266207   -1.36403804594064   -1.06482192152244
H          -1.25255715698576    0.23215581443021   -1.15524391251061
O          -1.03196477094169    2.43925640133324    0.94760339731212
H          -0.18403760626441    2.45305009186836    1.44317354098664
H          -0.77005165113941    2.23917740845219    0.03689642731106
O          -1.94722876891091    0.07847509505640    1.52648927936841
H          -2.08369486696974   -0.25004013411684    0.17245317532962
H          -1.11704602011564   -0.32666989014226    1.83479425931239
H          -1.73362480276473    1.05534423670323    1.43382529352855
N          -0.76534672347063   -2.60012225777852   -1.30184850156485
H          -0.87108045571522   -3.37632543898864   -0.66204294802867
H           0.13830756168150   -2.14997680151840   -1.12918485638390
H          -0.76817037579125   -2.96037785245155   -2.24677542210268
