    26
        -50.46658027  Gyration_radius:  2.42920913309 Dipole_moment: 3.709
 S           1.65339442596259   -0.81461938346901    0.84259996612001
O           1.42612130098042   -1.98476234807516    0.01914012830134
O           2.62987350324355    0.10457980172132    0.31376261254735
O           0.39118872317802   -0.16582765546173    1.21099654140298
O           2.22318764695765   -1.33738180097227    2.23379047344243
H           3.10929754171126   -1.61556965668918    2.02445936109128
H           0.70075321222483    1.45140251388892    0.64217867975373
O           0.89592480386441    2.27328365413837    0.15875142074068
H           1.84749699054402    2.23842474442596    0.02529692654308
O           1.50022697147536   -0.40516413185165   -2.10916946420263
H           1.37220823950911   -1.18409512953523   -1.54057348983786
H           2.20027711130261    0.07180346727797   -1.64491563306862
O          -1.28274895013594   -1.98620331904959    0.22854138502603
H          -0.66889504912903   -1.40019200062220    0.71806762478437
H          -0.68608137842053   -2.59732806434559   -0.21497704322180
O          -2.01638504744637    0.93438606730738    1.86046477632676
H          -2.38667778783916    0.35577066663935    2.52968799499359
H          -1.08206743807052    0.67808592868191    1.77437752733091
O          -0.43631039407375    1.43334476243301   -1.99823213137929
H           0.22223315746326    0.73779068509976   -2.22282890881638
H          -1.58172050613763    0.76557664507210   -1.31064724703530
H          -0.00190980415982    1.94726699211959   -1.27979025811887
N          -2.35171159440917    0.25292421698830   -0.72913916424534
H          -2.03475927911466   -0.73256003489162   -0.55305768674912
H          -3.25091944904561    0.28523551602230   -1.19548311167891
H          -2.39199695037764    0.69382784320988    0.21669874002765
