    26
        -50.44307972  Gyration_radius:  2.50836156091 Dipole_moment: 2.703
 S           0.38570873163972    2.14290601939683   -0.69308730774779
O           1.11675373081367    1.65752672066845    0.42856273581214
O           1.04266935243235    2.23933403324895   -1.95151711454975
O          -0.92270948992674    1.36223527015061   -0.86269014080066
O          -0.13318019333803    3.59551299006069   -0.32315591376527
H          -0.19368947712971    4.07269881467979   -1.14748027772257
H          -1.26483323389872    0.96310988884949    0.04334153376711
O          -1.81299383690143    0.31687020347123    1.22695855894734
H          -2.76532092543240    0.43225883396303    1.23546264627347
O           1.23629327804326   -1.97044650454339    1.29503125417063
H           1.08777665713138   -1.17540290184008    1.86522388198083
H           1.61408974369890   -2.64308671069907    1.86281093536345
O          -1.11884191282456   -1.30777578394903   -2.06340264306668
H          -0.13384715214468   -1.21710744620285   -1.99534795587580
H          -1.43830110490512   -0.40265709980605   -2.09818372661215
O           0.63921258499575    0.22326124980848    2.67193239779206
H           0.99503929774038    0.84158870311098    2.01386467997176
H          -0.31744484756922    0.27856112905654    2.55875333210382
O          -1.35100712083858   -2.03960225280171    0.47351819939516
H          -1.64771049622005   -0.68258620897071    0.97022614642294
H          -1.34769967646613   -1.91539835867441   -0.50809627313257
H          -0.41253027520298   -2.17123201701927    0.71814279096473
N           1.44734016329827   -0.74281796952297   -1.52463653534738
H           1.48733348095396    0.26747458090603   -1.58838190021006
H           2.22384018882781   -1.11910744479569   -2.05411368093966
H           1.58405255047767   -1.00611774816729   -0.55373562262618
