    26
        -50.46658030  Gyration_radius:  2.42914536348 Dipole_moment: 3.714
 S          -0.24854268169195    0.67480129923925    1.89465245519879
O           0.86570605688355   -0.16739151495330    2.27946398712107
O           0.09897362649661    2.05572103371216    1.67034930989043
O          -1.00864791144351    0.08483200959436    0.78833293789899
O          -1.27900720437210    0.65296999077092    3.10743457342030
H          -0.84740871360295    1.17048971387441    3.77996398130938
H          -0.96033323558438    1.40064092012667   -0.35210083644704
O          -0.74937057090421    2.11617616230231   -0.97728313771933
H          -0.46021196111862    2.83631333061755   -0.40961824352069
O           2.33863057488335    1.08564686107449    0.46577865963530
H           2.04478905296294    0.44143489792804    1.13290349422711
H           1.86327094027461    1.88353426805323    0.73132267270184
O          -2.36528341323227   -1.12116479730528   -1.24448882783965
H          -2.04929250202249   -0.55962347642055   -0.51584748982102
H          -2.85825929121661   -1.83311664696228   -0.83236194449169
O           0.23265466212056   -2.26614412591896    0.67374003493859
H          -0.31596296931351   -1.46752261846350    0.81878886639127
H           0.94341266966902   -2.15591782650936    1.31310953281697
O           1.31795760039163    0.75635327804885   -1.98198090640273
H           0.55095573293891    1.35089055918182   -1.81693871283705
H           1.86208844362594    0.84039394056909   -1.16657768876064
H           0.71158353964814   -0.60841056101934   -1.98190115541033
N           0.21373385329195   -1.57724059599857   -1.89520562194510
H           0.42522533051164   -1.97607411518022   -0.94715996394005
H           0.49101129321319   -2.20409103952395   -2.64170784996121
H          -0.81767291237968   -1.41350096686081   -1.89266811648795
