    26
        -50.44008891  Gyration_radius:  2.49868018071 Dipole_moment: 5.730
 S           2.04496205888605    0.17918733374828    0.95900698492199
O           1.56804644205174    1.39815661384963    0.36587042915608
O           2.63426833184568    0.28322015135148    2.24617898036851
O           0.84480075315765   -0.83101388039898    1.01148272094186
O           2.97819727872181   -0.55982496320041   -0.01539489699549
H           2.44276644709959   -0.63410608190213   -0.85231974854276
H           0.09995413257654   -0.39158582822028    1.52435943401097
O          -1.08745947958394    0.28591307124210    2.29291105221365
H          -0.82222118335135    0.47796985149647    3.19442847152139
O          -1.13835263182502   -1.45633895750252   -1.65258922015371
H          -1.37451706017834   -1.64643604323858   -0.71457755229173
H          -1.63990568218118   -2.07659846741420   -2.18397980434350
O          -1.73418107468846   -2.06994339848822    0.88331401890238
H          -1.87487711577408   -1.25054722061448    1.37815133151248
H          -0.88003083973340   -2.40106752845883    1.17499708284677
O           1.46882926628298   -0.86100349378073   -2.10202919860806
H           1.77115755580210   -1.62214730781471   -2.60233342783960
H           0.52973542706472   -1.03183056789578   -1.87225730333053
O          -0.84812556358545    2.48345924315899    1.01758302255757
H          -1.14196135547688    2.28424346212561    0.09783933573253
H          -1.10774173927422    1.18316233781202    1.81086325161989
H           0.11824074491225    2.42098815343031    0.94085610402226
N          -0.84950465233459    1.58475148879314   -1.51820909800726
H           0.14732607932930    1.51855664981013   -1.33079119382314
H          -0.96554514792815    2.09373708127054   -2.38533839584727
H          -1.18386101182759    0.63909832082321   -1.66802237052624
