    26
        -50.44438655  Gyration_radius:  2.51388968576 Dipole_moment: 5.860
 S           1.67523720411338   -0.50774881849011   -1.85862750646913
O           0.46195107328731    0.11533983821401   -2.30530619638671
O           2.86259471465096   -0.23842213083235   -2.58197600327202
O           1.87232999193529   -0.11471785695524   -0.34248230083337
O           1.47049756501796   -2.03101995100071   -1.73080810376790
H           0.62357296894634   -2.16417645928538   -1.21835047054378
H           1.46790436207490    0.78870965568281   -0.16808976013486
O           0.79427056103666    2.16552653184282    0.18894313913585
H           1.33092588981028    2.89702112893640   -0.12004906216235
O          -0.32749298913744    0.98579208005716    2.41271542419010
H           0.05713229290180    1.48139908531199    1.66765073862410
H          -0.10988974833879    1.47002553926887    3.21048968977426
O          -0.57496807846642   -2.42004198185473   -0.18087813902844
H          -0.12388895857870   -2.10637076585196    0.65484273312780
H          -0.67308023183153   -3.37050706264443   -0.09512055060196
O           0.77265211687323   -1.45109446498998    1.83390033142203
H           0.31027183010343   -0.65780719833898    2.16497878859029
H           1.47770580283929   -1.11036198752501    1.26607078831430
O          -1.22565563194531    1.95031157391896   -1.31475352195444
H          -0.04916051100643    2.15260658115857   -0.41011373878019
H          -0.76974721832812    1.36802031590112   -1.94577048320356
H          -1.78381930309967    1.33086108700323   -0.77361004864765
N          -2.33844347400030    0.07587615474334    0.24566073200177
H          -1.95681028134675    0.25121021353637    1.16849401335503
H          -1.91198323285748   -0.77371352040588   -0.10887520840930
H          -3.33210670466566   -0.08671759739106    0.34106470565358
