    26
        -50.43794618  Gyration_radius:  2.5249690595 Dipole_moment: 5.580
 S           1.25432995754259    0.66829185165052   -1.21930269515594
O           0.73822413054751    0.82684084195900   -2.54389025147508
O           0.62659525794205    1.39056467203523   -0.16906652384951
O           1.39692993776237   -0.81555539084811   -0.87410602247813
O           2.77742068282295    1.09449500891018   -1.26224231016661
H           3.05989305765596    0.94539423891192   -2.16154592065499
H           0.45481568089693   -1.28209518653248   -0.72314407532036
O          -0.79399314817460   -1.91235074817923   -0.53800371911740
H          -0.65550267445437   -2.83684728566426   -0.32169247248581
O          -1.88149017475189    0.11737806954863   -2.18539051079723
H          -1.67152017287953   -0.76355866578097   -1.85216244009284
H          -1.03673831596905    0.50893333538186   -2.45239079966324
O          -3.16777548415725    0.98632235303626    0.02357791908672
H          -4.10166265194892    0.96677510371627   -0.18969530986730
H          -2.69045496727659    0.81816810272887   -0.81637059984375
O           0.04694033230113    0.63139440660844    2.44010768562689
H           0.95242761859372    0.27239835996468    2.44917989833467
H           0.03641913779688    1.20851790920661    1.66483463537855
O          -1.88121857337404   -0.87850595331414    1.45534718771983
H          -1.18330186716970   -0.37778958844902    1.94851691108817
H          -2.44591075675863   -0.17989051474772    1.05561057154291
H          -1.25687492493726   -1.48066459810036    0.31856924501584
N           2.65251612447522    0.01903031739802    1.67494161878552
H           2.49238280616999    0.72237551597590    0.96323049240825
H           2.73743967232362   -0.86859903021714    1.19536255100309
H           3.54010929502584    0.21897688478979    2.11972494497457
