    26
        -50.45151239  Gyration_radius:  2.46960842059 Dipole_moment: 3.916
 S          -0.01333774182181    1.57801482815172    0.43913398792960
O          -0.42031507604650    0.70453725964964    1.50972157224339
O          -1.06939551336995    2.32636165884613   -0.16668962825851
O           1.08832242890094    2.52867529183020    0.88924117244901
O           0.70301016489417    0.72527266182354   -0.64342929281443
H           0.45984597342523   -0.28495059340445   -0.61032655320700
H           1.93435015985749    1.96365858770690    1.02012404881616
O           0.05772931302716   -1.71103983956834   -0.63269090765547
H          -0.50380177337899   -1.75387099071012   -1.42070605293799
O          -2.31335374536749   -1.01857779767328   -1.83505312800724
H          -3.08037484281453   -1.24823426281250   -2.36091674337657
H          -2.02883110993060   -0.12887733096165   -2.14761956932910
O          -1.39532450866156    1.36308011124859   -2.61452440551925
H          -0.47392064982391    1.32887398298707   -2.88055992314398
H          -1.40190915049589    1.84676888358563   -1.76425958117234
O           3.07301570603201    0.97318519974544    1.03166048624153
H           3.23209073433194    0.77103903255521    0.10640758815786
H           2.66797656059950    0.14015012501746    1.43443840721703
O          -1.96671286414856   -1.43601602404631    0.99185104780524
H          -1.61736388264677   -0.60550937063033    1.35874950419003
H          -2.48930943237842   -1.19748102222044    0.21420687263792
H          -0.61078273429040   -1.77173260711159    0.10493239438354
N           1.74704194427257   -1.10833340771515    1.92352509550991
H           1.94997187369049   -1.56313097071078    2.80399110690175
H           1.59892372497409   -1.82604113352731    1.22417504025989
H           0.87245442151025   -0.59582229224093    2.02461746072187
