    26
        -50.43867583  Gyration_radius:  2.64700306386 Dipole_moment: 2.133
 S           2.29668487394868   -0.29885593126161    0.65345604809107
O           2.68270112651412   -1.29907793190950   -0.28933783396281
O           1.68104477586868    0.88418926089717    0.14297299736241
O           1.46850635256388   -0.91025837656063    1.78420564028156
O           3.58149322407761    0.14800447499431    1.44190118153118
H           4.06947290568731   -0.65147480835919    1.62406890746979
H           0.51238702473785   -1.17287296254454    1.46148459430352
O          -0.83647123932131   -1.52361725786114    1.05454244546373
H          -1.17753828800091   -2.17906431673071    1.66699198232342
O          -2.75278699006370    1.05039129364387   -1.08064753167367
H          -3.66255762855754    0.96359037541821   -1.36740886304098
H          -2.28571645319852    0.23815402834421   -1.40969165987324
O          -1.50299766389003   -1.18988765107311   -1.72063443786834
H          -1.27353519455258   -1.52182551354678   -0.84374620187239
H          -0.64212535187842   -0.91713204362608   -2.11927007623339
O          -0.05293315270904    2.32984256750475    1.60568804257153
H           0.62412944647118    1.82712844952118    1.11604669377976
H          -0.25378292204166    3.09751071626343    1.06621825008134
O          -2.11458796074399    0.60782621255955    1.46929063363981
H          -2.43798769248203    0.84892730614669    0.56909117887396
H          -1.38265285467670   -0.65311468189779    1.23704975018320
H          -1.41479336494487    1.26535573538429    1.67052203193166
N           0.95835366298601   -0.34130827892670   -2.44236707612796
H           1.34144147199591   -0.27405988810150   -3.37737117783971
H           1.58919213460722   -0.91134024944956   -1.88625653382721
H           0.98505976761676    0.58296948118259   -2.02679896556074
