    26
        -50.43867598  Gyration_radius:  2.64666772913 Dipole_moment: 2.130
 S           2.14866983199421    0.01894678643917    1.08128740776420
O           2.97347292761252   -0.38521689285251   -0.01165500226624
O           1.26513849306340    1.12029704719178    0.86732636754457
O           1.40596459773511   -1.17981985161529    1.67230622261940
O           3.08730995956701    0.40222689050232    2.28312129282400
H           3.77656808439199   -0.25740508967583    2.29943971696837
H           0.64102021752636   -1.50652772413722    1.04338696356133
O          -0.45122460230878   -1.97095117461551    0.20731282705796
H          -0.65077777619244   -2.87864364751194    0.44672333676841
O          -2.74960221288739    0.71354344970291   -1.32802722819594
H          -2.00624926955061    0.23882696056612   -1.78438557625184
H          -3.53227257395372    0.53936038631274   -1.85206534923393
O          -0.77438978240072   -0.71262148591801   -2.35535977499679
H          -0.58346513299483   -1.30644450359037   -1.61867710900149
H           0.00337436187194   -0.10626497134915   -2.39743391831728
O          -1.02968648716783    1.38869212261340    2.24426045453491
H          -1.38309099264742    2.23979697060169    1.97690309028996
H          -0.16506547394424    1.30560896933143    1.80092053280315
O          -2.38925041519450   -0.56101676440592    0.98505374333093
H          -2.63482172256359   -0.05849707870858    0.17243895740605
H          -1.26707336583472   -1.40595100839988    0.53067037975703
H          -1.97437525095835    0.10252082379871    1.57674994966870
N           1.36435212645482    0.91340906706485   -2.07273860058780
H           2.05944121084621    0.33525493238346   -1.60946052266790
H           1.03157610768378    1.56055338241546   -1.36692830200312
H           1.83445714984891    1.45032241383074   -2.79116986940859
