    26
        -50.44460635  Gyration_radius:  2.51361226355 Dipole_moment: 6.589
 S           1.11823156173849   -0.29315644845036    2.25950000238510
O          -0.30950038704323   -0.23890278312031    2.40174607814144
O           1.84849032741139   -1.04923897596630    3.20918820297776
O           1.42567695856590   -0.81661462026535    0.80570074528222
O           1.69206774191983    1.13833353874420    2.17691300035830
H           1.13181754025746    1.61357132881782    1.50286079513831
H           0.66847602067553   -1.38346038955812    0.48029433734110
O          -0.53470984126984   -2.26496943406727   -0.08204079067961
H          -0.50611141162204   -3.13864817130764    0.31066096331178
O          -1.95690189620753    1.06764157123747   -0.74079817879401
H          -1.48732889128203    0.55507824704363   -1.41846365761380
H          -1.27546781635526    1.56344109681021   -0.26449309566992
O          -0.64903975105051   -0.78850155141846   -2.40333911981351
H          -0.53511672242481   -1.40212773842202   -1.65633984828721
H          -1.31850815104809   -1.17265224877286   -2.97219330507267
O           0.38465978746405    2.28264105001603    0.25237461717567
H           0.58402042099517    3.21909626797773    0.19838848318361
H           0.88310757020146    1.82281481949436   -0.50466052832704
O          -2.44725315666569   -0.94827469400558    0.95382549665304
H          -1.90687172427312   -0.65229598641342    1.70624504893087
H          -2.48511279485738   -0.16738320973605    0.35532296616517
H          -1.35424004187754   -1.79471168330086    0.32134132048543
N           1.64772043473762    0.91811379960640   -1.58392372804740
H           0.95700713968031    0.44417169740092   -2.15777498913099
H           2.04420621276886    0.22066520189391   -0.96177042323072
H           2.38068085956031    1.26536933576137   -2.18856440286159
