    26
        -50.44850646  Gyration_radius:  2.4654746801 Dipole_moment: 4.361
 S           2.08332582916140   -0.48149173540742    0.20925904724164
O           1.47410433841901    0.14379175388146    1.35897962692300
O           3.49486682102798   -0.53240037206900    0.16300016131997
O           1.46972014952164   -1.91540136548339    0.11014461810232
O           1.55967086971523    0.20545930444674   -1.07232781704809
H           0.58826391926142   -0.07375895270763   -1.27657017949078
H           0.67408668053724   -1.88155349208710    0.71882282748960
O          -2.08397797080252    0.28878935309432    0.71192186184868
H          -2.96914252397647    0.55699311250480    0.95939856953619
O          -0.54455147450455   -1.66427928432600    1.71131595791574
H          -0.01210550208529   -1.14606843379134    2.32587245681211
H          -1.19808686750959   -1.02156221880698    1.35091238997092
O          -0.82043022300451   -0.49845132794901   -1.53410886000055
H          -1.38794432479838   -0.14092929881180   -0.82413503941875
H          -0.89402555719327   -1.47376266697501   -1.46372403591774
O          -0.88735602662548   -3.13068174363664   -0.88081611660115
H          -1.12730017941017   -3.11964381415698    0.05138907555949
H           0.05130120961576   -3.33889214988251   -0.91627931526506
O          -0.37361326978262    2.10944437586380    1.25827885096898
H           0.38222418175759    1.52267561916815    1.44119295013712
H          -0.14710301123268    2.55352755646882    0.40682171019556
H          -1.46678821359585    1.05792372420986    0.95527933989178
N           0.41478451004844    2.97738553107581   -1.19514444107645
H          -0.27280795164514    2.95114181904969   -1.93781644685559
H           1.06021649344308    2.20894996354906   -1.35101465493835
H           0.93266809387213    3.84279474181935   -1.28065253985075
