    26
        -50.44460635  Gyration_radius:  2.51362531638 Dipole_moment: 6.589
 S          -2.47742634351655    0.52384961098693   -0.17307500974900
O          -2.23556868421153   -0.87282153948240   -0.40201346084868
O          -3.72354366429264    0.89503898712670    0.38928422379253
O          -1.30108698090401    1.06291804327788    0.72563696003423
O          -2.23262055566477    1.31892666755117   -1.47430901678060
H          -1.35096420886422    1.00545975223458   -1.81852436030920
H          -0.92555240743578    0.31844297251462    1.27817243771997
O          -0.28198762256913   -0.85132963951367    2.14899129428828
H          -0.85030793592548   -1.04886726153276    2.89487021450841
O           2.25666296209398   -0.21012827660245    1.29716329957376
H           1.38975814152634   -0.36398748080504    1.71228177738709
H           2.87896035385357   -0.78720474578787    1.74333382577053
O           0.16372519248535    0.67168803112615   -2.22352484824833
H           0.64907770491498    1.24844905808597   -1.54178804971904
H           0.36868078314583    1.02250415071893   -3.09216117118728
O           1.43025126897650   -1.54898289035826   -1.03611938417200
H           0.91642397054756   -0.92232698770802   -1.56557344979214
H           1.83670070237603   -1.02602573253045   -0.32635314658180
O          -0.48201322000683   -2.71627869821906    0.43246997816769
H           0.26220656311737   -2.49618630621746   -0.17343861277304
H          -0.35011341682809   -1.65614006529667    1.51406339333368
H          -1.26370928465696   -2.31849965352979    0.01238283632251
N           1.27266746286937    2.08357226054625   -0.32455069852046
H           1.88565426950047    1.47334004219875    0.20730687388930
H           0.43298120360400    2.21603231212768    0.23051075073460
H           1.73114373586436    2.97855739909020   -0.43503666683890
