    26
        -50.45524966  Gyration_radius:  2.4674118247 Dipole_moment: 4.694
 S           1.42811381027011    1.12425827291587    0.72720635824099
O           1.47350994523184    2.51209957637571    0.36243666982502
O           0.22366789392938    0.74388694807358    1.45037973515453
O           1.70507074676395    0.19506960984834   -0.36397226724246
O           2.63843046414517    0.88595412449542    1.74436354021452
H           2.69605902477598    1.72867239985563    2.18260949611658
H           0.63396478360144    0.06948067333843   -1.55900763644346
O          -0.07836860323335    0.01898251683995   -2.24257293592543
H           0.35851861842340   -0.11004343063684   -3.08541266612135
O          -3.03426614412509    1.02850603848267    0.09357145995893
H          -3.77468075798458    1.49501835861046   -0.29622242882387
H          -2.23899583153669    1.57733122010135   -0.09627342263224
O          -0.92230311564528    2.34155761512880   -0.87926777653450
H          -0.10903496286985    2.53676866350679   -0.38509538853995
H          -0.68159562094785    1.68468372790911   -1.54727076743341
O          -0.66453831306698   -1.58840122056402    1.31644488322255
H           0.24021067600035   -2.05369292070942    1.05286855362985
H          -0.37482289437046   -0.61167396570494    1.47015684293707
O          -2.00379278626445   -1.24146936343307   -0.76351820448601
H          -1.27218600631994   -1.52817384716711    0.44761654546721
H          -2.53072668353118   -0.46228762615274   -0.45439776869403
H          -1.36315817997759   -0.87202969298856   -1.39915089794705
N           1.65819446634400   -2.37919745964864    0.63950120946669
H           1.87997361553539   -1.46562660158069    0.22778568530640
H           1.81997826581822   -3.09686401083116   -0.05491243805167
H           2.29277759903846   -2.53280959607170    1.41213361934200
