    26
        -50.44460635  Gyration_radius:  2.51360969663 Dipole_moment: 6.589
 S          -0.14962213909384    2.49377382454425   -0.44770508191260
O           1.08548791154714    2.16786544170543    0.20795263580130
O          -0.16185092743998    3.61424201177916   -1.31444847159933
O          -0.62154124323730    1.20790244144224   -1.22608774852200
O          -1.27892028696226    2.62783563151204    0.59727687903957
H          -1.20808749281191    1.81788387325801    1.17436270271079
H           0.16974172474551    0.64469001985425   -1.46532566885891
O           1.40522731396928   -0.29270808612032   -1.83368378786285
H           1.87433269333047    0.07182332160176   -2.58561576015777
O           0.17237700631873   -2.49841566388173   -0.73983435684811
H           0.56297346836397   -1.76626464696042   -1.24866547060140
H           0.73758763148155   -3.26011209390186   -0.88023806123604
O           0.98534953802612   -1.31352961950943    1.67984447397253
H           0.60305307288983   -1.81246476761240    0.94000477826935
H           0.33435852437278   -0.63334904760328    1.90479791788307
O          -1.23404985563857    0.40571648839464    1.93250553100508
H          -1.68736542410386   -0.15801963341528    1.21857786275529
H          -1.82286783283059    0.43650980957148    2.68878110334973
O           2.77764517264087    0.09367345771114    0.27146620089663
H           2.02161451418561   -0.16721170367544   -1.02139223770173
H           2.41541889473221    0.98576483076330    0.40827348623600
H           2.29469735675199   -0.47023964156996    0.91814853148172
N          -2.27247550530990   -0.94886266657351   -0.04640237812692
H          -1.65224234548092   -1.72396384018628   -0.25980151389307
H          -2.12369384608546   -0.24509041662569   -0.76283828843846
H          -3.22714793436101   -1.27744933449992   -0.10995326764500
