    26
        -50.45018991  Gyration_radius:  2.49742741538 Dipole_moment: 5.276
 S           2.34452515495088    0.52973418015028    0.26461233067625
O           1.71357343808214    1.66001634518601   -0.37938654228134
O           3.60476748119936    0.74634753780890    0.86781048837301
O           1.31818455013011   -0.03242332631445    1.30043880882266
O           2.45469362428955   -0.64110215966055   -0.73182366312155
H           1.58894234670048   -0.77904376411755   -1.22212751260943
H           0.68853615023759    0.73782908883534    1.51954039912609
O           0.26272724022451   -1.09603053994232   -2.01064171814976
H           0.38300660679295   -1.90227071161597   -2.51496608312272
O          -0.34306587099840    1.60105232585475   -2.10089840803551
H          -0.20623766052314    0.70291526327278   -2.43337530039228
H           0.45835632680403    1.78893456508296   -1.57648767596212
O          -2.10257461172102    1.28883606753744   -0.19792403608156
H          -2.89946293904932    1.79124958512024   -0.37145338581913
H          -1.49291775033874    1.44562840461340   -0.97607879948639
O          -0.16653773356848    2.00098890558164    1.53384213415937
H          -0.97535821512097    1.76215967594853    1.02996942907796
H           0.41287942407609    2.45082815954340    0.90235194662663
O          -1.69022229741277   -1.45088193167641   -0.38914041321081
H          -1.33251403190892   -1.79045125564941    0.46811008988579
H          -1.98808315942623   -0.54269634536821   -0.21640149259960
H          -0.51056237028607   -1.27168312000502   -1.37424386582963
N          -0.54124006491634   -2.22318158116721    1.93212557256308
H          -1.04410239849987   -1.99775558428995    2.78124892674715
H           0.26434488454772   -1.60615300701805    1.87829356896712
H          -0.20165813423845   -3.17284678770784    2.01660518167943
