    26
        -50.45646104  Gyration_radius:  2.53591778863 Dipole_moment: 2.908
 S           1.99703297065880    0.62952172634263   -0.23548988522094
O           0.75976470502276    1.19821756864489   -0.78509055214064
O           2.92040243121547    0.22624148647590   -1.26601190746166
O           2.68181717099824    1.80944461345298    0.57582732387010
O           1.70922734694056   -0.40733090640405    0.73400568436087
H           0.44485010386028   -0.27273074643624    1.68807800139303
H           3.05801015592481    2.36144693863021   -0.10328584101150
O          -0.38007657292583   -0.22353817666111    2.23823635475771
H          -0.15830810858105   -0.61251140460628    3.08516107459314
O          -3.34922325509044    1.12716953206808    0.11011009055878
H          -2.53910211992311    1.63808852480480    0.35512145100612
H          -4.05306643217150    1.45299706462506    0.67155140231990
O          -0.56959165296997   -0.77130125370619   -1.67137197280493
H          -0.12915018776685    0.10324045046883   -1.41280619638392
H           0.27401897470388   -1.46786300306555   -1.65610265010783
O          -1.05495703163517    2.16550723834955    0.97056325956550
H          -0.39629974129032    1.98532295718339    0.27592056788119
H          -0.87521973299613    1.50333285546993    1.65376008481806
O          -2.04811932539236   -1.17507014737655    0.31160411233698
H          -2.68254827553956   -0.42690600434642    0.20559857504688
H          -1.22168125119159   -1.00216446459203   -0.86987078022424
H          -1.48813623494218   -0.92288617026089    1.07350003096568
N           1.52642992020337   -2.14987296037965   -1.53521504450904
H           2.19112586166693   -1.36799356267598   -1.56338659240276
H           1.77940889787995   -2.83536340511291   -2.23559793630542
H           1.60339138333941   -2.56499875089410   -0.61480866487897
