    26
        -50.46836995  Gyration_radius:  2.48078100078 Dipole_moment: 2.821
 S           0.98222973730136   -1.45777511224366    1.40576177991352
O          -0.03384440395609   -2.16233378460079    0.65814776200983
O           1.69285179051112   -0.49163701990614    0.56676359708639
O           0.49410882926892   -0.88848497051829    2.64469031192319
O           2.08886593903316   -2.52033132231431    1.81872464289645
H           1.66334299056973   -2.95623557230975    2.54874079334639
H          -0.66636944506122    0.12093848373796    2.20374283540198
O          -1.32198542238287    0.80069008822797    1.90455613451553
H          -1.96930249491475    0.87299122136926    2.60801614869289
O           0.02444859536290    2.18957519589880   -1.66312860500480
H           0.35743664472110    2.21907574739733   -0.71667732116160
H           0.18611710877496    3.05698665097608   -2.03443832318510
O          -1.32638631261634   -1.68617301782390   -1.61367902196830
H          -1.01166813374423   -2.07116995885499   -0.77178469799641
H          -0.04247405712552   -0.97768825086182   -1.93243702062530
O           0.85389698486137    2.05567896491515    0.79392499805547
H           0.04905228099903    1.88757749194016    1.30991328136057
H           1.32700457447071    1.20143527583410    0.80459317480625
O          -2.20285543256471    0.66894278792311   -0.72007916018305
H          -1.86874875203856   -0.90938979783658   -1.34272793030540
H          -1.97250624877863    0.67387593593472    0.22461706207460
H          -1.60403548178314    1.30189700676974   -1.13896596748270
N           0.87303991958937   -0.37952599316821   -1.92650983023346
H           0.61318052319657    0.61887466987335   -2.04194204406818
H           1.53355836942158   -0.67899612467479   -2.63402152063806
H           1.28104190686608   -0.48879858570512   -0.95580106922257
