    26
        -50.45524960  Gyration_radius:  2.46730668771 Dipole_moment: 4.697
 S          -0.88733092878802    1.25464712170769   -1.21358562884014
O          -0.28585158449373    2.53672000836577   -1.44977380018959
O          -0.06567892203725    0.13079703382787   -1.63844833819697
O          -1.39446048040372    1.05646549221429    0.14079160294878
O          -2.20162370744541    1.19918408931400   -2.12226875824373
H          -1.94770393570198    1.73190845602885   -2.86880125776886
H          -0.33783854789290    0.94728448864282    1.35046763692846
O           0.36478046400193    0.85793198480293    2.04002816266713
H           0.02672447603839    1.27704875750666    2.83246610831951
O           1.94136872777565    1.82441126895691   -0.09241565777456
H           1.52972823880464    1.66270956009662    0.76782305500101
H           1.23474558764274    2.14848410136842   -0.67499917568260
O          -0.25647958666951   -2.09084803230270   -0.50974365346352
H          -0.11601314209739   -1.23501648971991   -1.06595514387253
H          -1.23083885072323   -1.96160893723859   -0.13777625379558
O           3.14157527429358   -0.55132404523274   -0.30874919752995
H           2.69011157420208    0.31790172649947   -0.41031409967312
H           4.05388767356794   -0.35038091923390   -0.09640308086239
O           1.35736484735495   -1.59036766204456    1.33019751646230
H           2.12292254330586   -1.31632092898365    0.76527396237993
H           1.02423253726497   -0.75966771225981    1.71739707001402
H           0.42460643992742   -1.97166730317620    0.29621396399663
N          -2.58473046667073   -1.43360182223187    0.28164873147357
H          -2.94634836747149   -1.66756802412304    1.19704641877398
H          -3.31857819141679   -1.57978989582612   -0.39905794090208
H          -2.33857167236480   -0.43733232695934    0.26893776783689
