    26
        -50.45524961  Gyration_radius:  2.46740369989 Dipole_moment: 4.695
 S          -0.75424998106480   -0.58165116924469   -1.71084873385304
O          -2.18020611430080   -0.58075189584171   -1.87780709249666
O          -0.18938995773293    0.73595516253761   -1.45935204734715
O          -0.25031473856385   -1.56381901518541   -0.75575581673838
O          -0.13733852375831   -1.05920338926102   -3.10641064867048
H          -0.77358908436688   -0.72231985805368   -3.72867283119721
H          -0.58131156866350   -1.35947773388239    0.80645375751700
O          -0.79389937735314   -1.15736711824965    1.75043168355317
H          -0.94697600429032   -1.99821433714826    2.18338721088087
O           1.92116513544925    0.99271999432116   -0.14538341580231
H           1.06827133048085    1.00589517027016   -0.72308077547289
H           2.29765994542072    0.02719827784934   -0.32025623513846
O          -1.03720171177544    2.71481509912502    1.35108712893945
H          -1.63502441185138    3.18878841788165    1.93051909383842
H          -1.58985468975933    2.05266601811331    0.87584904761363
O          -2.53146687018302    0.67586443983761    0.49037758889185
H          -2.51574645617677    0.31231360181582   -0.41035556202362
H          -2.13805088741654    0.00124730639280    1.06108153574426
O           0.83172549390892    1.01439692331099    2.10244690578848
H           0.28801234195351    0.20489776734753    2.10982969616042
H           1.54379125237320    1.02699465515370    0.84670362447011
H           0.18939049534773    1.74841172339623    1.93227486310328
N           2.50871463687293   -1.41725367978050   -0.71576533724063
H           2.94667840388650   -2.05179669870667   -0.06079412276810
H           2.94190267441736   -1.54285281954994   -1.62122189348067
H           1.51730866715565   -1.66745686244925   -0.80473761427826
