    26
        -50.44892219  Gyration_radius:  2.61079857394 Dipole_moment: 7.142
 S           1.25699013468801    0.48731301097609    0.69686479100284
O           1.30251841248364    0.42417361524350   -0.74284855490668
O           0.18755194293355    1.25967226512387    1.24595737095068
O           1.19285640229307   -0.96437158792092    1.24536990419183
O           2.59832024087504    0.96940681920300    1.23871072560032
H           3.30109150440847    0.49896371939647    0.63894704346128
H           0.28913532069887   -1.37458572943952    1.04318354275281
O          -1.07628015785979   -1.93171898729688    0.56952892088685
H          -1.07736619235514   -2.88961372408753    0.51863748522661
O          -2.69797276131949    0.82707417079060   -2.09373801807678
H          -2.55920156935597    1.37830216360589   -1.28606015989933
H          -3.62884093697453    0.60072709078817   -2.10376732249950
O          -2.22520831292508    0.12609818148851    2.15836793605875
H          -2.06375313994746   -0.70184457374746    1.68959477506481
H          -1.36515443094363    0.56493016566314    2.19828506113048
O          -2.32390359051598    2.07785022955560    0.22376437114221
H          -1.37657104667338    2.14818332270817    0.39522528308305
H          -2.63682797897240    1.46687164104707    0.91516498265295
O          -0.77846988408247   -0.98886112781520   -1.77338705451699
H          -1.04995107856196   -1.59205966197202   -0.39282309896191
H          -1.50017749833600   -0.35516392056243   -1.99663546431906
H           0.00043334414050   -0.43430400244568   -1.59511038571844
N           4.00395896534569   -0.27570714815237   -0.48249145622315
H           4.21904853762252   -1.24176399204957   -0.27597813824215
H           4.80389617814472    0.15485979581374   -0.92660789543508
H           3.20387761521961   -0.23443173569250   -1.10815465454423
