    26
        -50.47392086  Gyration_radius:  2.43999794493 Dipole_moment: 2.170
 S           0.23001936297122   -1.25870321594631   -1.44814347189427
O          -1.11897622667914   -1.71801526177043   -1.68524264155334
O           0.42489741361577    0.16334217922361   -1.68636991269515
O           0.73586752958687   -1.64019117749868   -0.13649169740316
O           1.13253036516110   -2.00235496244084   -2.51450310880215
H           0.62771412323663   -2.79819276407866   -2.63594787379268
H          -0.21308073768014   -0.96718264271446    1.14597498878857
O          -0.77096357764758   -0.48507855778069    1.78341977723890
H          -1.66413980855970   -0.54441464812258    1.41497317064121
O          -1.64526157961084    1.74701435220261   -0.80556258892706
H          -2.27785989412589    1.06369313006584   -0.53298701037168
H          -0.95629135766829    1.26924889697131   -1.29563921853747
O           2.64624062440682   -0.74321007672146    1.46575573392127
H           2.06064576068462   -1.24054538767956    0.85675248036047
H           2.23337038857873   -0.81724376286881    2.32982155678837
O          -2.85869722425584   -0.63420080398703   -0.05325585894704
H          -2.24491482901989   -1.08483790265643   -0.68042547302379
H          -3.72931058049720   -0.99862334187818   -0.21907599415352
O          -0.28324744264609    2.12483249580291    1.44785311602018
H          -0.48660427824135    1.22648442628168    1.79442421103964
H           1.01807627113619    1.84894866718252    0.74649019142028
H          -0.88232497731002    2.21394220862998    0.66918474641049
N           1.83909738264850    1.44350528373953    0.15111859099951
H           2.32371253295672    0.70286953509926    0.71361805944754
H           2.47938233479240    2.16396732221964   -0.16159361440732
H           1.38011840415482    0.96494601873240   -0.66414812856169
