    26
        -50.44477118  Gyration_radius:  2.61778870071 Dipole_moment: 8.916
 S           2.98218177519742    0.18362303903328    0.07671585493925
O           2.16486007588587    1.32441234160729    0.39863580670357
O           4.32833978328292    0.19239367788512    0.51433778883064
O           2.24058810797068   -1.07963676271564    0.66352309403028
O           2.92179373873248   -0.09010741520475   -1.43565014647730
H           1.94344688326002   -0.07857058131959   -1.67033249470026
H           1.49341265375093   -0.78979297479823    1.24707300468645
O           0.13889093536974   -0.49373360304049    2.13072386360017
H           0.33591145433526   -0.51769298198856    3.06820584629079
O          -1.49914146587557    1.65439490183682   -0.93152427828471
H          -1.91668812433247    2.30028727076249   -1.50189240264401
H          -2.11589923779758    0.87426853650860   -0.86145650745966
O          -0.49342284879541   -2.06619984774066   -0.02984201840528
H           0.27310140924740   -2.64443715808384   -0.05182709232266
H          -0.42142302691044   -1.56987892400276    0.80330936500803
O           0.38916870337503   -0.14355971381404   -1.80015871748291
H           0.04308859468031   -0.86909485665809   -1.24660621550335
H          -0.09867364687044    0.65197661792294   -1.52203215763342
O          -0.19054856440262    1.95961194488908    1.45964450014763
H          -0.73753303456106    1.97433748902772    0.65497043787235
H          -0.06504861470301    0.47471684177472    1.90953332006584
H           0.72703863264240    1.99908536190018    1.13216903088132
N          -3.00041936105818   -0.56117366727441   -0.77451181580518
H          -3.48844130863778   -0.82094072087852   -1.62266199006355
H          -3.66284052790959   -0.59652178826264   -0.00983145161016
H          -2.29174297594169   -1.26776700734881   -0.60051462462088
