    26
        -50.44477123  Gyration_radius:  2.61783490318 Dipole_moment: 8.912
 S          -1.58946744894932    1.24607079443413   -2.20288010779825
O          -2.21766440172058    0.37958279091149   -1.23979152959710
O          -2.42125038330650    2.11504320185447   -2.94906302006603
O          -0.51257683472139    2.08775951114731   -1.41427352721520
O          -0.70752393511150    0.41709942827032   -3.15199809012976
H          -0.15216338882509   -0.17138625582386   -2.55407441667364
H          -0.63032620239477    1.95483642257300   -0.43893802276671
O          -0.59227059524010    1.74368161119611    1.19117135161226
H          -1.06640916266814    2.44887290764869    1.63402298706555
O           1.83867688229432    1.05716990862925    0.11387034764112
H           1.06765883035290    1.31491070737711    0.64750124797858
H           1.93047195750289    1.74218545033410   -0.55301368550178
O           0.69071973276137   -0.89757814854469   -1.45864687929504
H           1.17861982717341   -0.23933298970484   -0.92833277234207
H           0.19069335662429   -1.43119772008224   -0.81576759817293
O          -0.16781558330850   -2.29449159947883    0.74726876420764
H          -0.22637288395544   -3.24962015923726    0.78058151809125
H           0.69703104960990   -2.03307980964683    1.16865820697340
O          -2.04017965439642   -0.37012186529764    1.30651877632319
H          -1.44940947228611   -1.13780591466627    1.21337951858839
H          -1.14736771563008    0.90501359836068    1.32093319999341
H          -2.36691620929379   -0.20226439777314    0.40326934063318
N           2.18746183223786   -1.46897452968182    1.72635450681289
H           2.32029710397297   -0.60151759002685    1.21477063784482
H           2.97937169175930   -2.06648919057727    1.52433925114484
H           2.20671161751592   -1.24836617221236    2.71413999461915
