    26
        -50.44222309  Gyration_radius:  2.45047830952 Dipole_moment: 3.935
 S          -0.41458376362773    1.42017098960267    0.27268989548502
O          -1.67190466158242    1.15476464574070   -0.36063699520518
O          -0.07039492563094    0.77061280378283    1.49996795343010
O           0.73335650779003    1.53783427785977   -0.72437936761662
O          -0.51047479499702    2.95598599207817    0.70690004169067
H          -0.92993382534834    3.45989480392057    0.01142214914516
H           1.49436931029954    0.79784425647421   -0.67413430933899
O           2.43841632276074   -0.27590688255300   -0.57293178964283
H           2.60914679373597   -0.31582228849392    0.39640243940608
O          -2.32078861599378   -1.17797210610091   -1.97890994549912
H          -2.75521283776841   -0.59277260180764   -1.35005991746455
H          -2.00994032781256   -0.59082767068483   -2.68738660942973
O           2.36473918758703   -0.14700151412948    2.08902840742492
H           1.43781408976613    0.14579857305931    1.97043612644616
H           2.81848117608267    0.57026283113988    2.53495498066268
O          -1.08049382688861    1.07450845668665   -3.02917264912313
H          -1.32596047012394    1.21107236379212   -2.09943383158060
H          -0.12138920019584    1.04552508737746   -3.03618297419383
O          -0.08947768761165   -0.94912022146296   -0.47870674489109
H          -0.85779067886488   -1.16601724832170   -1.05116616076099
H          -0.21500451335853   -1.46950695868764    0.34632954458142
H           1.73901463613337   -0.93472260843021   -0.73423415876392
N          -0.31613308596017   -2.13990427052079    1.96816280210226
H          -0.56838872838355   -1.21665777849249    2.30400682130067
H           0.60014477302480   -2.35755174655469    2.33958814753268
H          -0.97761085304731   -2.81049117528386    2.33744613429909
