    26
        -50.43679973  Gyration_radius:  2.67521170246 Dipole_moment: 1.538
 S           0.69152327077326   -1.08242371263562   -2.42967477634514
O          -0.57419624313113   -0.60568092163833   -1.94101074032657
O           0.68187755301047   -2.08642765759074   -3.43076081211958
O           1.43387103138531    0.18964924772511   -3.02246899838766
O           1.57225755895548   -1.48962065226265   -1.26423343533264
H           1.56294688805707   -0.70113565700142   -0.54317521316312
H           1.97242404180412   -0.13181897413502   -3.74045874539594
O           1.53032866544395    0.34390913623439    0.39440148955695
H           2.18017570034804    0.10178538355121    1.07696885827331
O          -1.74265261115963   -1.85503589753829    0.13389805886775
H          -2.68252852058110   -1.91447015293479   -0.04446930107690
H          -1.34044730133836   -1.44714928014671   -0.65529315767612
O           2.04252916393754   -0.85470360282903    2.78356472220991
H           2.10404949441480   -1.80986466750552    2.83273441206245
H           1.09713043273399   -0.64122380742732    2.80802751495616
O          -0.34301355601254    2.00793524321813   -1.11472156870247
H          -0.53341600976080    1.14756784503205   -1.51869258682978
H           0.55687629932588    1.93616883785417   -0.78334395437046
O          -0.54452534077378   -0.15499175560150    1.86507897002377
H          -1.11308819979702    0.65541928208210    1.77256286562482
H          -1.00990204227242   -0.85651824347073    1.37052566234659
H           0.65663541083074    0.21847342743997    0.89029195797409
N          -1.95542881684523    2.03386894814967    1.27157954542264
H          -1.48820380467774    2.17188430244905    0.37156104347289
H          -1.80673924020928    2.86833738767074    1.82459953222387
H          -2.94848381447095    1.95606592125838    1.09250864669066
