    26
        -50.45451337  Gyration_radius:  2.51521139283 Dipole_moment: 6.054
 S           0.18005100587461   -1.46956491397422   -1.58481850563900
O          -0.42120490216386   -2.17079379604657   -2.67525495045900
O          -0.13817815985462   -0.05455705853307   -1.48494996878901
O           0.08454847428231   -2.15156467631861   -0.29853453657698
O           1.78286544498276   -1.43729475889655   -1.89279511864944
H           1.95087513391444   -2.28108365412232   -2.30371621594331
H           0.05536937264905   -1.37053993264146    1.10777378624727
O          -0.03447059371538   -0.91284899872222    1.98173798238737
H          -0.16123157661481   -1.60700156349273    2.63009278860821
O          -2.52133891313002   -1.55067829885250   -0.87435333295233
H          -1.72105015861072   -1.98046556622365   -0.54580214055722
H          -2.44656951318507   -1.59491578088156   -1.83091194155959
O          -2.12138806393501    0.60812215185628    0.86998285707891
H          -1.50363515571639    0.06575550899217    1.38356181981106
H          -2.37651894252081    0.04878192942995    0.11906410527067
O          -0.61832003804104    2.78318774859402    0.77474242026473
H          -1.20062787672078    1.99208952963090    0.65052122700660
H          -1.18199878789994    3.45418953122166    1.16143161635808
O           1.34715683408216    1.42263131976210    1.91279955802409
H           0.61855678790026    2.04413179814528    1.67583093939589
H           0.90114836275186    0.57559935084573    2.10281916524876
H           1.80234865248759    1.24482010937418    0.49688425231835
N           1.93674082193530    1.12959340460287   -0.58188417107328
H           1.01795844711808    0.70046261118414   -0.96318074280413
H           2.67963226959092    0.47698869197998   -0.81648634982572
H           2.08928108453250    2.03495532309605   -1.01455455318930
