    26
        -50.46106751  Gyration_radius:  2.3932229616 Dipole_moment: 6.674
 S          -1.49681111202217    0.48068543523210    0.34129482465506
O          -0.51107871296747    1.37424258007113    0.92826649287080
O          -2.58737088942885    1.18601571618263   -0.31064561926425
O          -0.88097034663121   -0.45165922833818   -0.60826734419894
O          -2.10750541118221   -0.37895184119058    1.49596927787438
H          -1.34980072629471   -0.82332495758160    1.94011509368407
H           0.10068426849756   -1.61331228333555   -0.28609096081880
O           0.71093870167281   -2.35999640333749   -0.02298195240094
H           0.40731614052852   -3.13356924013925   -0.49979649227250
O          -0.02790830981927   -1.74775934521393    2.46456520555824
H           0.34799657652171   -2.06195982902727    1.60896930602058
H          -0.30623445690418   -2.52390543654123    2.95430028475081
O           1.79782808117535    0.45846017148654    1.97169419629971
H           1.47521810115186   -0.30562506171669    2.45878185245164
H           0.99208855502434    0.92780464034220    1.68629318240476
O           0.86613669952721    1.92312860500986   -1.25309112869414
H           0.43177485465735    1.92381550121645   -0.37288174705376
H          -0.28006566953131    1.62135454411609   -2.07251655289821
O           2.44469656160671   -0.10373183321757   -0.60393747794691
H           2.01374306764184   -0.96638278591724   -0.61577758957479
H           1.52217195453746    1.18051592042711   -1.17907160047879
H           2.43743572717843    0.15507657821153    0.34145510495217
N          -1.27285295507986    1.38156917349954   -2.53294544429517
H          -1.23380256192085    0.43676173528909   -2.90454055309201
H          -1.55524811847471    2.05509189704644   -3.23788089239148
H          -1.93838001945984    1.36565574742184   -1.69127948614242
