    26
        -50.44222293  Gyration_radius:  2.45050031786 Dipole_moment: 3.941
 S           0.74791596277906    0.81021207762019   -1.02439342181847
O           0.84067798023180    1.88306888675781   -0.07950665514433
O           1.43096610108932   -0.42426527792631   -0.78780152933166
O          -0.65424026338042    0.65536665334022   -1.60357290231330
O           1.48355886924510    1.37147254679988   -2.32822832268745
H           1.24675188798767    2.28812459277576   -2.45933702220557
H          -1.17616173097448   -0.24090051159868   -1.37192560624389
O          -1.82526816213887   -1.44929682721073   -0.95648577311210
H          -1.13081720687256   -2.12862364867344   -1.11914295493035
O          -0.63741744885601    2.10588862136420    2.41871088725270
H           0.23339147134194    2.32506254818462    2.07187759207350
H          -1.25851174156704    2.57832165839158    1.84059302393133
O          -1.67793155914000    2.94676159751562   -0.01622722650593
H          -2.20051177156274    2.29230958239968   -0.48457390109854
H          -0.75655340330623    2.65440610089297   -0.11023029344748
O           0.42258611681902   -2.83521982469066   -1.32544760426950
H           0.88071677106886   -2.00385657595844   -1.08472574103815
H           0.70102835554265   -3.04683312014234   -2.21812302907886
O          -0.54830034648569   -0.12795747958500    0.90713550796759
H          -1.72624047735758   -1.20517436875787   -0.01846156838208
H          -0.65470634128569    0.60574270076219    1.55160032579561
H           0.08339687006467   -0.75797316058419    1.32095938509899
N           1.32228704126260   -1.92614864291116    1.75823273119455
H           1.93007147762891   -1.49894542722439    1.06775996352253
H           1.08993877743147   -2.85342150281149    1.42478883143246
H           1.83337278057249   -2.01812119889392    2.62652530341758
