    26
        -50.44222306  Gyration_radius:  2.45028652487 Dipole_moment: 3.929
 S           0.45318010039193   -0.77962476255162    1.20390601518627
O          -0.81158653691770   -1.45239192876515    1.22027062477833
O           1.36791763720843   -0.98252195852428    0.12280851340950
O           0.35924148026975    0.66264820137042    1.69088162352673
O           1.24296721297168   -1.39921849466517    2.44848136408201
H           0.64667676191517   -1.49976517345155    3.18867788589245
H           0.56959141768594    1.42627324034113    0.98277260813471
O           0.80895472850878    2.38688000823004   -0.05439314758445
H           1.63215088848830    2.04390950241233   -0.47295850701068
O          -3.18339851004963   -0.68445935038843   -0.28543739977438
H          -3.35997076164766   -0.18610515106492    0.52928913594017
H          -2.74664192966760   -1.48948498902522    0.01090678669328
O           2.85001811960361    0.94280306941771   -0.97933006623759
H           2.34752414770680    0.16803590377644   -0.65332378707735
H           3.67966233449800    0.94654739684334   -0.49879684234733
O          -2.55769201350444    0.41696488529214    2.18644523524162
H          -1.93497209493350   -0.28992730250568    1.95010571473434
H          -2.04510801971838    1.22750253221020    2.15434072453059
O          -0.72998776798646    0.36518307469717   -0.68485206072705
H           0.08175995981696    2.02183029272508   -0.59015666111661
H          -1.66350277213986    0.06085339548291   -0.65247380216301
H          -0.33999405627814   -0.05245507293592   -1.48538720722937
N           0.62358359401957   -0.82533092227544   -2.73568604265867
H           1.33882355525409   -0.20304713859438   -3.09108752160827
H           0.32094411086351   -1.42764082083577   -3.49026385454703
H           1.04985839363364   -1.39745844720644   -2.01473932210092
