    26
        -50.44647005  Gyration_radius:  2.48310305332 Dipole_moment: 5.863
 S          -0.55233193440814   -1.06240866038977   -2.05361530361695
O          -1.49752088000566   -0.16627233693884   -1.43446266430102
O          -1.01884963690945   -1.93253782020790   -3.06628146892321
O           0.64876472351694   -0.23994931176946   -2.56350905589680
O           0.10627821969777   -1.91236831267000   -0.90876965257474
H          -0.28826335180049   -1.70351419925102   -0.01362552588579
H           0.65135607442239    0.60274375328624   -1.99716330754461
O          -0.83918150520803   -1.43100806155293    1.45670836240323
H          -1.18019554451656   -2.23838058580917    1.84443199350207
O           0.46309625825613    1.75667917095087   -1.00642868348196
H           0.72990033257715    1.42463940549760   -0.12038983716092
H          -0.49753059492780    1.82755905875383   -0.98047021055142
O           1.08199231068835    0.58958228337261    1.36601056343713
H           0.48664946872995   -0.14993632603386    1.55867890486260
H           1.85634510621957    0.17265540360349    0.91373886155101
O          -1.10467013746056    2.32694530011415    1.58332938089928
H          -1.14638515459629    2.95751534627148    2.30280545700026
H          -0.25659450572039    1.86261349205389    1.66173149893588
O          -2.72962817884186    0.21811545152376    0.92060009447825
H          -1.63381108706121   -0.81682167674891    1.31644059380040
H          -2.33298751268819    1.06930744901666    1.18164066150973
H          -2.56462353403614    0.13954421461889   -0.03490119819829
N           2.80236445206195   -0.68366950547911   -0.26650367607252
H           2.12807502924733   -1.34677985208029   -0.63776197541893
H           3.63030152650775   -1.19912461961963    0.00504268998395
H           3.05745005627700   -0.06512909052306   -1.02727650274075
