    26
        -50.44646987  Gyration_radius:  2.48281750954 Dipole_moment: 5.865
 S           0.94442535125249   -0.99118960802884   -1.94235078117704
O          -0.46266740026086   -0.67671646104797   -1.91157815672672
O           1.41066175195261   -1.87491459683603   -2.94326627901569
O           1.74566723882924    0.32638398375363   -1.97280137759238
O           1.32751482141850   -1.56451756103184   -0.53117654491594
H           0.53191781325617   -1.64215035541736    0.07002961197186
H           1.12559464724844    1.02201035392490   -1.56947500497336
O          -0.66841208687734   -1.78910220683007    1.10801844364545
H          -0.74944754368095   -2.69703610113740    1.40395457262281
O          -2.58846248810155    1.42031329350811    0.64364008714514
H          -3.21518146970139    1.90032295162584    1.18561013345927
H          -1.75693480282055    1.37835754988957    1.14139886467437
O          -0.01902144795818    0.87539772054429    1.61773050701769
H          -0.24331142300120   -0.06701503236287    1.62004976748704
H           0.96962242390892    0.89442463036584    1.60352126171105
O           0.03206093314776    1.86805034370517   -0.90904012876113
H          -0.00474017666888    1.60561049762956    0.03765947666959
H          -0.76151221102747    1.50000285542269   -1.31292525863854
O          -2.63484424337956   -1.11849155102519   -0.39660166979238
H          -2.04814321439644   -1.02077353763575   -1.16656802821866
H          -1.49782445584647   -1.58571135031707    0.56119199983316
H          -2.81712419224522   -0.20993461652558   -0.09474252613554
N           2.60829494836846    0.66964667594266    1.06937646434977
H           2.87358486326687    1.40903180558070    0.42956416964801
H           2.53755861442395   -0.18365984503745    0.52244721921989
H           3.36072375888441    0.55166016137825    1.73633316649718
