    26
        -50.46862829  Gyration_radius:  2.47486906462 Dipole_moment: 4.046
 S           2.02744583510648    0.90608668320713   -0.33766706627173
O           0.75953917108596    1.56323231302924   -0.69879936704961
O           1.95040157723195    0.31679015949874    0.97098264065327
O           2.48587429971301    0.02117344091187   -1.38835008711025
O           3.10043018853526    2.07484190378045   -0.26780890809691
H           3.38251979660540    2.11939903991755   -1.17537046271900
H           1.51202707729938   -1.24885951292011   -1.22210073038290
O           0.84057636507393   -1.97293815995166   -1.17174170060944
H           1.31784978323506   -2.78897401899660   -1.33153754251853
O          -2.70240724079394   -0.14978965613291   -0.34095578077358
H          -2.04568808858233   -0.11343471808732   -1.09857147038765
H          -3.57412275444613   -0.13853990257427   -0.73634569337846
O          -0.84497922929941   -0.02257116628359   -2.15195903181000
H          -0.24067234266113    0.64657029522142   -1.77327589335134
H          -0.36090473792123   -0.85832739267910   -2.06818370590464
O           0.04151676860346   -0.33600526392535    2.71144537943123
H          -0.65936093658416    0.74175971107195    1.92894781042817
H           0.91547331351338   -0.18990219782185    2.30328421677687
O          -0.97262608450984   -2.03542753732560    0.92682688133789
H          -0.31956325717941   -1.12306805070485    2.24027899913449
H          -1.71319267443931   -1.54642438661717    0.54352268281403
H          -0.29148020696021   -2.06900683307052    0.23342009620781
N          -1.07353080878376    1.41488664784455    1.17529293007905
H          -0.30962827398931    1.55850427474972    0.45450423820818
H          -1.36614524938758    2.29957505642904    1.57330237754470
H          -1.85935229047948    0.93044925143249    0.70085919771047
