    26
        -50.46437160  Gyration_radius:  2.44658235475 Dipole_moment: 8.368
 S           0.85893972764074    0.69568603696311   -0.39974741034827
O           0.66435533385402    0.95584004250494    1.02209376237132
O           1.65798921747736   -0.48492823030446   -0.64772874748544
O          -0.56353943962147    0.46308663827015   -1.00879830011023
O           1.33059404695091    1.88488729164297   -1.10973947029745
H           0.17737240333824    2.69211177844872   -1.12110650364237
H          -0.97483187309253   -0.38376200463231   -0.57560887190966
O          -1.45760693712047   -1.61098748966832    0.08656915113527
H          -0.94371945618281   -2.27586319602954   -0.40727288860961
O           2.10800564236978   -2.53698812901122    1.14508993207151
H           1.77307898141726   -3.21206078020535    0.54719018889593
H           2.20046135023517   -1.73873850180657    0.59996626059594
O          -1.64558098101088    2.10170030204767    1.15701384169588
H          -2.25448745483776    1.36040687265475    1.10474200834032
H          -0.74863118415364    1.69502417353308    1.27958451985232
O           0.51929023429938   -2.77479631884670   -1.37935618268574
H           0.98968121519938   -1.93377325507738   -1.19008313866746
H           0.52696035680077   -2.87952718653576   -2.33116156791465
O          -0.04756294634466   -1.32287560755595    2.25992353672327
H           0.72723027376074   -1.89892895698880    2.10578878456628
H           0.26606833746166   -0.43240214625120    2.02062615452235
H          -1.03951587837345   -1.58001167631951    0.99459933363955
N          -0.81012317785272    3.21534194813942   -1.06827840950918
H          -0.69135690544593    4.22268035958380   -1.02134984808614
H          -1.26887989384153    2.83260331638083   -0.18031499131801
H          -1.35419100294531    2.94627474904855   -1.88264115382935
