    26
        -50.44095342  Gyration_radius:  2.56216898511 Dipole_moment: 7.666
 S           0.20595390190660   -0.68936820594897    2.31940322548968
O           0.73683714353440    0.32970241087048    1.44870364695331
O          -0.14225773386840   -0.29634918360534    3.63349563696990
O          -1.02417312810315   -1.32542616158685    1.58479346101421
O           1.17063183140540   -1.88998480418762    2.35714494869288
H           1.32951327208377   -2.10332845685947    1.39849195165784
H          -1.47766684116477   -0.62952907274018    1.02820373879487
O          -2.15594883161741    0.41715221712140    0.03749498533430
H          -3.05635173052659    0.59802282527219    0.31276846979795
O          -0.88039044239261   -1.53050784419111   -1.45750223995486
H          -1.56873239284153   -2.19527048585120   -1.38905043378190
H          -1.25566449271628   -0.72253072387848   -1.06903937959951
O           1.32501629083395   -2.43081953913042   -0.17447828536474
H           0.53316696742543   -2.06174785571744   -0.62667226058087
H           1.30212111289281   -3.38106893643279   -0.30505017602705
O           0.42305826768240    3.00052986987112   -1.69727245621748
H           0.93214559277742    2.14867529022548   -1.63904399539285
H          -0.13293083343017    2.93300249591800   -2.47449933612001
O          -0.76495177637265    2.45210924620309    0.63938399106452
H          -0.07426793428653    1.93826608840019    1.08901312102759
H          -0.34025647904438    2.80925666082475   -0.17512062155111
H          -1.62684659321540    1.27350929845418    0.23494034541853
N           1.54952246158010    0.58778786632764   -1.36301155082632
H           1.37104249740874    0.47168396991326   -0.36704063099612
H           2.54424970430671    0.46448065499429   -1.50229957638942
H           1.07718018576723   -0.16824761427581   -1.84375656941975
