    26
        -50.43893783  Gyration_radius:  2.70297307068 Dipole_moment: 2.909
 S           2.52013553472624    0.24616163806349    1.09548890910309
O           2.95336858606734   -0.08855698261726   -0.23044558451408
O           1.63963260972627    1.35155229775630    1.23441929515326
O           1.96708307743081   -1.00576737082527    1.79558452090836
O           3.80250892054023    0.51436146779408    1.96214028959763
H           4.44020051403462   -0.13496968515088    1.67547367034190
H           1.14064058684355   -1.38118497116405    1.30003592373796
O          -0.00011626541891   -1.96812918997843    0.57123029035713
H          -0.13406130580560   -2.85888970999389    0.90058013671218
O          -0.96499215718795    1.42255306880328   -2.06271934392447
H          -0.26364547582015    0.74127378129951   -1.92834548346733
H          -0.77526236849507    1.84012253504907   -2.90368318556880
O          -2.73582024802027   -0.62749781735439   -1.66173610390403
H          -2.25918595180330    0.21173586164552   -1.81049977655571
H          -2.24369662943283   -1.29381915268073   -2.14545652690177
O           0.75086572023443   -0.59005821108405   -1.72887794117905
H           0.38886014439235   -1.19538328173257   -1.06583250089455
H           1.62186124384552   -0.33884475027844   -1.38052311436029
O          -2.13804870546542   -0.73939364260994    0.98339082880916
H          -1.85081001804085    0.21779175487692    1.08499938870553
H          -2.55508060275043   -0.76643613843158    0.09765164289869
H          -0.89398180651503   -1.44657229596956    0.78776371284581
N          -1.23538110592098    1.73648535521278    0.92165396094487
H          -0.24776737187369    1.69541204104426    1.15932680662614
H          -1.64200264533709    2.51715443418417    1.42037781492167
H          -1.28530426996254    1.94089898415584   -0.07199761039206
