    26
        -50.45060013  Gyration_radius:  2.45596494651 Dipole_moment: 6.065
 S          -1.65051027308279    0.42695545799027   -0.94719462777364
O          -0.83134197325470    0.72708372430747    0.19932751990218
O          -3.03424837991280    0.20270263735671   -0.67002637788073
O          -1.47567288242500    1.53077114377028   -1.98267038426139
O          -1.05990937460140   -0.82411748726275   -1.65740283771629
H          -0.36450094554928   -1.28330509698209   -1.09975748697268
H          -0.46405432055918    1.86385574539611   -1.86495056661445
O           0.72722681813413   -2.07282312047459   -0.28425109596178
H           0.62683213139021   -3.00883500145309   -0.46561184275943
O          -2.61857183860724   -1.04031714285130    1.70123756543126
H          -2.90628753628162   -0.38975638513470    2.34499883761016
H          -2.84364033756941   -0.66581699739795    0.83094341558823
O           2.49699458593438   -0.01789524003790   -0.58398054405048
H           1.88290946820122   -0.77268778094717   -0.51984430950811
H           3.36491496488539   -0.38622504708449   -0.75709037851989
O           1.23591670315164    0.76384331023385    1.89742913498280
H           1.91045539703475    0.58580853970080    1.23003011211638
H           0.43026234553610    0.93508907060513    1.38321676621277
O           0.01016103173191   -1.65896325618868    2.10626764244907
H           0.45153312165837   -0.79929007205801    2.27081999333463
H          -0.94592803028477   -1.46496686522626    2.02087148914186
H           0.44538133175312   -1.93991379281526    0.69943505096854
N           0.91411456375263    2.25375371500413   -1.54649415245465
H           1.46383685263594    1.43160250242457   -1.29967219417880
H           0.84883546631855    2.83923955496630   -0.72366616954656
H           1.38529110000922    2.76420789416727   -2.28196456954959
