    26
        -50.46301417  Gyration_radius:  2.49247712746 Dipole_moment: 5.497
 S           0.92655892476668    0.43884658359305   -0.54000477785796
O          -0.17930579905967    0.14411230669036   -1.46435954852979
O           0.71877793795348    1.66960067451665    0.19186523579026
O           0.93220805124626   -0.73572627517774    0.49765110453814
O           2.21181583590328    0.33992539505251   -1.21169505998289
H           1.99190440735521   -0.87888904930786   -2.12435350260002
H           0.06839143145615   -0.67672336861851    1.10081882457468
O          -1.12861884447566   -0.52395892176303    1.88363596179489
H          -0.91782986146711    0.27525034463070    2.40496858327039
O          -1.68783900590939    2.96976994107208    0.47477385666867
H          -1.62129489259781    3.05282155377541    1.43055566542642
H          -0.80810583950114    2.67763312840826    0.18323637849581
O           1.09493256090175   -3.24861432812313   -0.49283254348034
H           1.15612172505953   -2.42350358943885    0.02784099536006
H           0.31201840120074   -3.70432014729833   -0.17757753822126
O          -0.05825524453978    1.81656080093336    2.73447228497519
H           0.68725967725085    1.85608779392336    3.33459824858413
H           0.31616786536384    1.82809072660462    1.82759463205327
O          -2.48948214971527    0.44457560123844   -0.11226264423813
H          -2.47810471805957    1.40639043121592    0.06349518694924
H          -1.76573486693814    0.31103510852928   -0.75077862819925
H          -1.79109094264037   -0.22744579732368    1.19430108483505
N           1.30967482345238   -1.58263750388885   -2.57061309102456
H           0.43419351814032   -1.01301099418968   -2.38320067399076
H           1.27854353038351   -2.43763262955629   -1.97253677329102
H           1.48709349442764   -1.77823780551065   -3.54959325193364
