    26
        -50.45209653  Gyration_radius:  2.57679083222 Dipole_moment: 6.615
 S           0.22669501725335    0.77393523801479    0.77866228673010
O           1.28808102401668   -0.02782735843817    0.21952358716739
O          -0.15874346859638    1.89188730517906   -0.02161207739693
O          -0.99608451716162   -0.15822081683704    1.02632568793395
O           0.57433396575889    1.22124725513708    2.18691889222421
H           0.54850939070018    0.37567937495329    2.77809769721863
H          -1.43459237331462   -0.37477811292618    0.13714331060043
O          -1.92612721353506   -0.70890676005547   -1.27709955698260
H          -2.23601392155788   -1.60968650348710   -1.38892992108473
O           0.39630681729561   -0.96946822280931    3.40817637417392
H           1.08447065548993   -1.52265516034645    2.92611101335266
H          -0.46318375348806   -1.24995573950444    3.08147147484845
O          -2.34486602883970    2.08247521226139   -1.75418835409838
H          -1.75487253506360    2.24199505327673   -1.00444292006295
H          -2.54792931063916    1.14091442104731   -1.72266067411956
O           0.15806822062470    2.13709350240368   -2.87771273112529
H          -0.81070366119156    2.23352028501577   -2.81640595797900
H           0.47609181830118    2.43196114620918   -2.01728400951366
O           0.38860287240888   -0.44454620463400   -2.30592945115937
H           0.90766146591531   -0.36015046953144   -1.48901422898883
H          -1.04420727665401   -0.63964077162861   -1.78568803924414
H           0.37960542695170    0.46315916167010   -2.70003018682260
N           2.15040355552338   -2.19084872234066    1.86341596280439
H           2.01819679490345   -1.49400341391159    1.12988708759423
H           2.00657878751821   -3.10630244153396    1.45632059533043
H           3.11371825740439   -2.13687725719849    2.16894412862187
