    26
        -50.43893820  Gyration_radius:  2.70411822649 Dipole_moment: 2.908
 S           0.95915645065416   -2.55921609261404   -0.39197169704927
O          -0.40388521570881   -2.83692025872687   -0.74264609302460
O           1.61249437105747   -1.51127555791160   -1.09281972650888
O           1.08026111452457   -2.38059272278698    1.13009447198316
O           1.78099374584346   -3.88331024119458   -0.58961443259531
H           1.20513842287007   -4.58313607102829   -0.29116427537106
H           0.51567809879937   -1.58042715988803    1.46208835706722
O          -0.33254854314661   -0.48176122371776    1.96344186340658
H          -0.41051402002603   -0.58038932191941    2.91427244923522
O          -1.19860765240915    1.53535290674855   -1.84734875327459
H          -1.78689880576768    1.56493940560768   -2.60273111371908
H          -1.40997969408222    0.70025873033056   -1.36541397812649
O          -1.85600628234811   -0.57951951353780   -0.36518013354508
H          -1.49962456954411   -0.45167587286837    0.52579880474154
H          -1.47865171151346   -1.42452241895891   -0.65976497704959
O          -1.61103462749586    2.78772313247224    0.55253323650421
H          -1.41392814293394    2.51159499377366   -0.36318264978732
H          -2.36621556097423    2.26267139664765    0.82471214798716
O           0.68771993833164    1.76707759326966    1.57332133658499
H           0.13657176314662    0.45350025243620    1.81125894233646
H           1.17363401037411    1.66367425743233    0.70024902145916
H          -0.09751229197148    2.30469499238590    1.34200849687951
N           1.64265798216695    1.39663683991180   -0.85548842948425
H           1.78896599631594    0.39667218130601   -0.96583207885815
H           2.44693833861015    1.87247079015046   -1.24310770643763
H           0.83519687489968    1.63547900251478   -1.42351308339958
