    26
        -50.45400611  Gyration_radius:  2.46752654042 Dipole_moment: 2.268
 S          -0.21131609331534    0.08459296102323    1.46942839948930
O          -0.70559759501728    1.20839560707403    0.71684305242354
O          -1.11099838695630   -1.02352809940483    1.55322222242960
O           1.13774756102466   -0.37013334570183    0.87095753362474
O           0.19873487803720    0.51725894130337    2.87592683531571
H           0.98574755360557    1.14314246953675    2.73992405090201
H           1.21603127172609   -0.21924595313137   -0.14473930242840
O           1.38841019982399   -0.00533025458112   -1.61238454596953
H           2.10798756554931   -0.56308965689375   -1.91664547150543
O          -0.51234420881411   -2.94931718278447   -0.22263836245938
H          -1.06519687042310   -3.70882581091379   -0.03149367894135
H          -0.70876395302710   -2.28872580252133    0.46887732761782
O           1.42308206840179    2.50813067090341   -0.21473754941011
H           1.65078435408128    1.89845441441841   -0.92675732197453
H           0.51326727061701    2.26498433023838    0.03394251503177
O           2.23163634670377    1.91975977259063    2.24144949223085
H           2.01535423612382    2.27182927227624    1.34049776279684
H           2.92332464201439    1.26564372474351    2.11501301859719
O          -0.69305793648326   -1.26026768843245   -2.34440666538247
H          -0.61301281397566   -2.01185177445491   -1.72690208235136
H          -1.47771848257918   -0.75508047191240   -2.01372137590517
H           0.53532694591533   -0.44138502783327   -1.98306212424887
N          -2.66575169371136    0.00264713923018   -1.02721206497670
H          -3.12298134664384   -0.66461463318151   -0.41759880577215
H          -3.37849982619362    0.61054280742212   -1.41140341169870
H          -2.06219571647021    0.56601359138986   -0.43237942737276
