    26
        -50.45060326  Gyration_radius:  2.45465941504 Dipole_moment: 6.046
 S          -0.69565163171340   -1.77349410453240   -0.38371452108711
O          -0.42457018092911   -0.47170426548161   -0.93813853623794
O          -2.01457608223607   -2.27296061515928   -0.61429533706107
O           0.35447197989424   -2.75598555546114   -0.88569415560979
O          -0.42237293969713   -1.72106135022265    1.14654925955974
H          -0.35931134633723   -0.78097125104374    1.49022691330642
H           1.25106049401181   -2.17607010476348   -0.96134393079593
O          -0.24078626900818    0.66062601077564    2.10987464071141
H          -0.66815923567214    0.66585419914969    2.96797717441203
O           2.20130994010309    0.92175376003394    0.91356556079468
H           1.35428530220393    0.81151206541037    1.38336438140248
H           2.80469749936015    1.33579732488733    1.53277077787514
O           0.50578425749088    2.02780848075976   -1.15187569953085
H           1.24050303357472    1.91226764206570   -0.53639488909328
H           0.16476162899701    1.12900201287107   -1.28907492067801
O          -3.25472300032193    0.13383141530495   -0.49960728273174
H          -2.89480369239883   -0.77105339173468   -0.48863753018992
H          -3.44254457538361    0.32567241084715   -1.42065488812825
O          -1.63255310318585    2.06852794744542    0.53534260844390
H          -2.26387804178236    1.42211502783630    0.15709341436937
H          -0.81993875966402    1.25600604383953    1.49764724852539
H          -0.97029692636627    2.24864139325915   -0.16444318025511
N           2.37412645169670   -1.23490124117406   -1.06910315615791
H           3.28741306535694   -1.67005563580124   -1.07990163483811
H           2.33390403243748   -0.55314901790572   -0.31233465630329
H           2.23184810956686   -0.73800919121304   -1.93919766069479
