    26
        -50.44980538  Gyration_radius:  2.48743806499 Dipole_moment: 1.699
 S           0.56613133306757   -1.03881556725543   -1.43132336165002
O           0.25568652482066    0.34659608399321   -1.69770882424536
O          -0.08473062435451   -2.00546356056129   -2.24170333449538
O           2.09055559234158   -1.24656738447383   -1.51889044110512
O           0.25312841685283   -1.33043477784238    0.05628716134129
H           0.01349235327953   -0.49052472505396    0.62239008047214
H           2.50992537345829   -0.56309975932872   -0.91426329892285
O          -0.33866348597046    0.62457348751054    1.52965076999930
H          -1.32851123761403    0.59942288145740    1.49191474374847
O           3.03017311485856    0.41167686734457    0.19148559091664
H           3.98476055169477    0.47399207555491    0.25942751106382
H           2.70196042924999    0.06665392234111    1.05906878920682
O           1.94789416670900   -0.67598902538470    2.36228979028347
H           1.17118578403287   -0.10100862386558    2.44065794730256
H           1.61736902795345   -1.50097523466095    1.99422445541879
O          -2.92305803345374    0.35371613553962    1.10587982323841
H          -3.34556573362685   -0.36022398369941    1.58524885316831
H          -2.83319538148692    0.04408762381541    0.16344532152995
O           0.27366785626675    2.54105344948757   -0.18316910734553
H           0.41882856229383    1.83333521380784   -0.84152545783351
H          -0.46375539238300    3.06207039458212   -0.50660523249499
H          -0.07224974074209    1.43074803805844    1.02349269136872
N          -2.46764784086398   -0.54072833354538   -1.37880676958167
H          -3.18286264322071   -0.47991911746580   -2.09449855231321
H          -2.10752503934997   -1.48942849594784   -1.39516486662925
H          -1.68699393434694    0.03525240562138   -1.68180429093345
