    26
        -50.46329443  Gyration_radius:  2.58264813226 Dipole_moment: 2.486
 S           0.45588502373923    1.78096632702548    1.28036066018131
O           1.33185791439112    2.72987659079675    0.63134117127704
O          -0.94926534099065    1.97194198631247    1.04203274188896
O           0.85009399914236    0.39171172315291    0.96268171526998
O           0.70355971784996    1.93667253575016    2.84116545756928
H           1.59528271446963    2.26796384536180    2.89660379358394
H          -0.77095622874716   -0.24287550424482    1.13227296083629
O          -1.62189593845719   -0.71981595362710    1.12741140389878
H          -2.26929787966938   -0.03241047207407    1.30278291767735
O           0.82555909355420   -2.32208116317680    1.36014851941050
H          -0.09061139378403   -2.31165874664255    1.65687676219243
H           1.07839769937630   -1.38689876703233    1.31111933323331
O          -0.29346625745504    2.91651800179065   -1.43989205084897
H           0.43851984630435    3.09475333748749   -0.81491098700338
H          -1.05849864602462    2.83969826016246   -0.85522618212745
O           0.58288177520145   -3.06815739005304   -1.20297251095959
H           0.65783587943030   -4.02127719416847   -1.25588447082836
H           0.76830254238813   -2.82951786172447   -0.26492024073960
O          -1.51104034689443   -1.40561015398790   -1.49758476456468
H          -0.44283294909593   -0.31546447048322   -1.72630916645225
H          -0.89635230108910   -2.16682054543635   -1.49537162902577
H          -1.72954176399216   -1.24595935139308   -0.55547831669568
N           0.39434445224817    0.36456197623269   -1.65850969328755
H           1.12140668048620    0.10381772102773   -2.31641654159004
H           0.74335281473431    0.30215519663845   -0.67278843604421
H           0.08647889292116    1.36791009246856   -1.78853246664664
