    26
        -50.44653783  Gyration_radius:  2.47664489027 Dipole_moment: 6.218
 S           0.77164843250363    1.55666150542499    1.54737492570411
O           1.03733279890995    1.08747002789599    0.19774791745584
O           1.88865410997265    1.80791470890007    2.37068599332314
O          -0.10670505599971    2.83065981683271    1.44041276120011
O          -0.15262260391128    0.51994868335357    2.21413853149205
H          -0.76862000752716    0.05842955429014    1.54261715901421
H          -0.76554632461673    2.64825213882631    0.72232560678219
O          -1.67119743721344   -0.75953552241489    0.60288826758888
H          -1.52350357475225   -1.55893751043362    1.16162788068588
O          -1.47094473289014    1.80068625853918   -0.51651816887576
H          -2.03458833407309    1.08729989834374   -0.19118532799480
H          -0.60337479304144    1.39941897407540   -0.68416797544679
O          -0.47291527960389   -2.54189762296942    2.13339193152878
H          -0.29414152740614   -2.10063040279956    2.96613198958509
H           0.31549358019951   -2.37909178241682    1.57330085311196
O           1.37046031990602   -1.65463678103910    0.34772901262811
H           1.43841549407614   -0.68847941612962    0.37161304553429
H           0.89306887144215   -1.85342270939990   -0.46925900332615
O          -0.47528817301975   -1.36616557780321   -1.76309994602532
H          -0.96204799380395   -1.78150451411857   -2.47577736165852
H           0.05071488164994   -0.61851268926852   -2.15987733537313
H          -1.24986785109247   -0.98771264873109   -0.25358149416086
N           1.02088299404887    0.66218847713977   -2.65588348521554
H           1.83748161799921    0.42088054508730   -3.20331171543102
H           1.34279852503566    0.94268999556906   -1.73249950724429
H           0.58441203271498    1.46802658339142   -3.08682457526330
