    26
        -50.44879209  Gyration_radius:  2.454745837 Dipole_moment: 2.827
 S           1.87901079249515    0.57242900969618    0.67750676693841
O           1.78768244588610   -0.29942411551303   -0.47564348598907
O           3.13652119664714    0.63289674792898    1.32256785833024
O           1.46038383735725    2.00794057112015    0.25123485299707
O           0.77395970157079    0.16387682118228    1.66544778390081
H           0.02492763611603   -0.43687172435299    1.18409837351970
H           0.47620580844678    2.07290819183978    0.18051796152585
O          -1.01176392675527   -1.20030962473300    0.62002359854402
H          -0.50480058961083   -1.98275784317177    0.27071303776958
O          -1.15457397302493    2.30188928945309    0.31488039129549
H          -1.46374090378336    1.81671850217938    1.12549350631744
H          -1.32917266513860    3.23264727712846    0.46469089138692
O           0.63105473976108    0.50588380468515   -2.71237088956467
H           1.06249285710253    0.07176669127084   -3.44912587164401
H           1.13259412819580    0.25464147641896   -1.90867890635818
O          -1.82337039928242    0.85580690369673    2.42710404428571
H          -0.94452176050051    0.73007005858893    2.80318412560414
H          -2.04882360478385    0.00954313511600    2.02012609362724
O          -1.72904088130862    0.22418956749932   -1.45247134352060
H          -1.33429123421873   -0.71428327828339   -0.19280275154138
H          -1.76413407934680    1.09669943546125   -1.03885200878107
H          -0.96009727663372    0.26749708216746   -2.05427620953356
N           0.69164383544080   -2.96581539603283   -0.40035439845594
H           0.52835448773374   -3.41673661090792   -1.29134281109792
H           1.16695030453723   -3.62551125688500    0.20159522656333
H           1.31654955315557   -2.17569472553931   -0.55326584606404
