    26
        -50.44083198  Gyration_radius:  2.86099774664 Dipole_moment: 6.392
 S           0.05264717942407    2.39218559572988   -0.16548592105651
O          -0.45904943461473    1.30614155137954   -0.98322908746093
O          -0.87049584872605    2.96693516433686    0.74944827933004
O           1.31161891133748    1.85838935178366    0.57118480758333
O           0.63349113681442    3.47743520277372   -1.07806432189837
H           1.13097782109756    2.97809850116304   -1.82513739163020
H           1.23131853337111    0.85520123501090    0.65601217917554
O           0.75722445343712   -0.62866177711863    0.45621468411766
H           0.21451994203859   -0.35045424724236   -0.29611927450312
O          -2.56743817683846    0.80672344702629    0.76059130693153
H          -2.36407241915665    1.67444101102064    1.13179484286394
H          -2.08856350262042    0.79893192404707   -0.07849259411602
O           1.19286740434609   -3.33268534410299    0.37798251327709
H           1.75925193207460   -3.52660906054066    1.12696748095366
H           1.16389753742993   -2.35895019490392    0.30860223813565
O          -1.46470903835848   -3.51679912123671    1.01820901967110
H          -1.64555278606190   -4.35343293617875    1.44767658039529
H          -0.54717609672565   -3.56341386199879    0.68295206506456
O          -1.13823044716809   -1.04147256058151    2.12288139655963
H          -1.42750388702591   -1.92684964479954    1.82932593780104
H           0.08023906035321   -0.78758498965316    1.20378016654217
H          -1.79718553022470   -0.41147915432118    1.76296025849316
N           1.66999777776426    1.88472181991530   -2.80948841020380
H           0.92387814232267    1.22002219534328   -2.63263113046039
H           2.55339702617713    1.47121974648594   -2.54246905878097
H           1.69465030941321    2.10794612708093   -3.79546655690491
