    26
        -50.46775019  Gyration_radius:  2.42070401593 Dipole_moment: 5.392
 S           0.40826259897135    1.43445431779699    0.08690894264691
O           1.17529376418680    0.86894622598194   -1.03913693870693
O          -1.00225901823778    1.46872250085168   -0.21232060975242
O           0.73062724311960    0.70629376488375    1.30871824509477
O           0.88041556873238    2.91023787637735    0.27105729648316
H           1.84083390972601    2.83018688489204    0.43187785710711
H           0.92766558496434   -0.86543535705347    0.72426597096745
O           1.02648403846237   -1.74975078781810    0.31516670448595
H           1.74732237196740   -1.66494191947088   -0.31153996850888
O          -2.59763803917639   -0.57167907386096    0.66079989352512
H          -2.22249023478840   -0.76374768156137    1.54256873516572
H          -2.18685259060759    0.27105685163554    0.40381254517931
O          -0.92100944871860   -0.91448558280535    2.76622774486271
H          -0.35052644445199   -0.21139515280237    2.41207665824834
H          -0.42609621574289   -1.73041194407862    2.65997529835668
O           3.21816694840621    1.68922134596521    0.51842475785001
H           2.90446799289850    1.20243582700465    1.28825758406461
H           2.80586827504072    1.25922988167374   -0.24719777802502
O          -1.30612832598019   -2.11619728170258   -0.99186594348288
H          -0.46508700825721   -2.18978794794038   -0.49348723075872
H          -1.93480943981561   -1.67299375488610   -0.35342465600577
H          -1.07359733748352   -1.01158218023328   -1.89376550002610
N          -0.85633680215712   -0.03621072781629   -2.39774307153572
H          -1.50912754264612    0.64974597219019   -2.00800742317333
H          -0.89558442033601   -0.07906382927160   -3.41034332194760
H           0.08213456192430    0.28715176205904   -2.03130578211451
