    26
        -50.44925218  Gyration_radius:  2.46445467838 Dipole_moment: 3.914
 S           1.52601936914207    1.41005942821687    0.78592506852910
O           1.61148290227202   -0.02731477895432    0.64338815022752
O           2.37678579960218    2.15531464543914   -0.07271703221082
O           0.03915418422835    1.81781155167969    0.52261587750975
O           1.69378200643692    1.80197721867298    2.24842316908502
H           0.87791974344042    1.43102678146335    2.74251717191191
H          -0.04927554967924    1.81915813201453   -0.48067018005178
O           0.15885567550112    1.62795668749624   -2.02017019975319
H           0.93663154679369    2.17455428204195   -2.16366063586239
O          -1.99638443246099   -0.04531235802448   -1.01188858592934
H          -1.65824253380187   -0.78281217413478   -1.52996771267336
H          -1.67771735511524    0.75538569543464   -1.43931931059779
O          -0.80821775716203   -0.91817233980533    1.32473897325704
H          -1.35362436568922   -0.50694622228381    0.62730634722806
H           0.11818142079831   -0.74037849448385    1.07243809502103
O          -0.48250746678201    0.90713156012053    3.20978640461665
H          -1.11314671439386    1.58969267161348    2.96619341687998
H          -0.68503685265498    0.12943785847268    2.62585292685543
O           1.03045348399748   -0.82144950621921   -1.87419320671895
H           0.47889570500676    0.68363634007747   -2.10373370289179
H           1.47778942603096   -0.65315298080947   -1.02773202814767
H           0.42949770627821   -1.57621238776960   -1.69429792770580
N          -0.63867326615252   -2.84951136681454   -1.00051165168116
H          -1.52010699864164   -3.21544256398901   -1.34113544755795
H          -0.78582326536357   -2.54195532771355   -0.04102562563557
H           0.01330759821524   -3.62448235172306   -0.96816235373991
