    19
        -40.91893384
S          -0.17708931313702    1.30291221371866    1.13728249860815
O          -1.35917051458044    0.75743150595353    0.45237855165155
O           0.00620681954554    0.72586551390932    2.44472276077933
O           0.98870328142010    1.26214598159892    0.27661275276755
O          -0.49427155867320    2.84179985211734    1.36555508539432
H          -0.97185788826364    2.84295130560626    2.18962638481921
O          -0.39256064312881   -2.62329556513027   -0.36516769326571
H          -1.08240293432823   -3.00302357748141    0.18263770027575
H           0.26253766885929   -2.21294170436196    0.26081387069134
O           1.19011726608166   -1.32292366728976    1.27441830856190
H           1.81654966581248   -0.77831611953473    0.78835401751292
H           0.73356135255119   -0.69187508228104    1.86697409909404
O           1.00577384289641    0.64605596026296   -2.23939765354246
H           0.96267912649056    1.45613769509979   -2.75069153796217
H           1.12079406219004    0.91967227924141   -1.29268973349773
O          -1.14074675744646   -0.55645928754935   -1.61554133003194
H          -0.29412446603833   -0.14485493057878   -2.02121462026348
H          -0.86335572258339   -1.46743707008529   -1.20775574688827
H          -1.31134328531538    0.04615467502851   -0.74691769587373
