    19
        -40.92120591
S           0.62407082224835   -0.38537800017449   -1.16805973918525
O           0.76637131650994   -1.77285459820004   -1.51372849179589
O          -0.75582475306607    0.09417947465634   -1.25171769942109
O           1.23917397657883    0.00717400581109    0.08945111113284
O           1.42052554519472    0.44655709216063   -2.27493988108407
H           1.35825718409362   -0.08912838168101   -3.06005691495747
O           0.70827331157522    2.56459320036827    0.28121188631706
H           0.81643899818125    2.95646217318757   -0.58736715409293
H           1.10819973209828    1.66599173965784    0.22837641958445
O          -1.47969835039745    1.32345825819902    0.76912338263530
H          -0.73879263513491    2.01372572197223    0.71208311542673
H          -1.32766969155799    0.79507801668035   -0.12904019009111
O          -0.84477021791480   -2.48493371270130    0.49091776094785
H          -0.76682009281156   -3.43321046619325    0.61541731816475
H          -0.29700305008950   -2.26502692863674   -0.28726621814674
O          -0.40181540471682   -0.45165419772177    2.15250765574875
H           0.44861514134295   -0.31319706186713    1.69411942632358
H          -1.14058266258597    0.60989829168923    1.48763488388585
H          -0.73694917958109   -1.28173464704427    1.75133332857676
