    19
        -40.92218944
S          -0.31074304329559   -0.69348403800199   -0.87339729521429
O          -1.24442802219923    0.41224762260405   -0.68549918369121
O           1.05821401062341   -0.20519545058363   -1.00626364716842
O          -0.42374924371390   -1.67622319650801    0.20418548024768
O          -0.69305469234596   -1.43608790644045   -2.18697553980473
H          -0.59804641598534   -0.72998966640507   -2.85968423658255
O           2.26809086280246    0.18393940402850    1.25379579702982
H           1.87351392270741    0.11594346837478    0.34279001186549
H           3.03459123870233   -0.39349131763989    1.25474972714594
O          -0.18218372318850    0.96015704165708   -3.14661623421352
H           0.65779181959698    0.87532048587990   -2.67639336376493
H          -0.80718250206258    1.27396223760511   -2.47979395753703
O          -1.46598408924549    1.19698431631695    1.77559502571063
H          -1.40958636210313    1.00333200546567    0.80115617689367
H          -2.38750574667306    1.08040051495410    2.01657843105080
O           0.15925384896565   -0.64096904108390    2.36840996957975
H          -0.11482223104409   -1.21226554814488    1.51545213654520
H           1.08261123771889   -0.27157845701872    2.08066804430418
H          -0.49678087925226    0.15699751493126    2.30124266761342
