    19
        -40.92079023
S          -0.47605465438203   -1.25434829048439   -0.63864709479656
O           0.69270567596830   -1.42653499546989    0.22662249797371
O          -1.69950282139412   -1.67212387492886   -0.00427370860113
O          -0.52128358084543    0.08956488552341   -1.19780844403506
O          -0.23959289408581   -2.20762219485877   -1.87981341629235
H          -0.31716624883784   -3.07984430584894   -1.50579847984246
O          -0.43581645145410    1.72110008304458    0.90861061667275
H          -0.67219436400226    1.32611567713730    0.04491670939988
H          -0.92531261334919    1.16802014199132    1.56188423678749
O          -1.72779043641143   -0.18996152719044    2.18345254010423
H          -1.72776218860739   -0.82376249776791    1.43367259624335
H          -2.62981951107248   -0.16051633011952    2.50802756565856
O           1.80692457925971    1.14305999397445   -1.78779117023921
H           0.93069115033405    0.69067849021937   -1.76610009313589
H           1.65609527324011    2.01320523903856   -2.16244371822841
O           1.83537155213175    0.70972633735537    0.73460094213159
H           0.94105121850313    1.25036656305761    0.94889024026399
H           1.45306481445784   -0.26502826780275    0.61377861534564
H           2.05639152055160    0.96790484312811   -0.22178041540669
