    19
        -40.92079120
S           1.35954382750616   -0.55712243959949   -0.22273284433681
O           1.97198873263433   -0.82487473335579    1.05295366510077
O           0.27167964289274   -1.48767430240030   -0.53010335371007
O           0.93428877323446    0.82398812894171   -0.40402606874730
O           2.46259915607586   -0.79629519477504   -1.33214008044889
H           2.81246136596108   -1.65424130973166   -1.11280786327831
O          -1.23258014891816    1.08812735217816    1.12645232576910
H          -0.38003073961716    1.26508121421752    0.67961102329562
H          -0.99147585257062    0.47130358983960    1.85708793326951
O          -0.08728701820782   -0.68593750683729    2.70355386484415
H           0.25335628563257   -0.53765406841388    3.58775951897312
H           0.69599350323416   -0.83302171211824    2.13016218210602
O          -0.73066460616693    1.24126086682368   -2.38720709969010
H          -0.92653653732161    2.17976195565709   -2.42119549989358
H           0.04024344158660    1.13686922969304   -1.78073534763932
O          -1.91778852299242   -0.36053781468696   -0.78240639736380
H          -1.06453300536816   -0.97309105570791   -0.69621777811814
H          -1.81128869814617    0.25375429476118    0.08301068891903
H          -1.65996960944930    0.25030352551371   -1.55101888905303
