    19
        -40.91793145
S          -0.84533316933639   -0.09736826126672   -1.53780071117883
O           0.55704235035657    0.21964868243547   -1.36271810841768
O          -1.08513226738660   -1.45585697229588   -1.96734470729665
O          -1.62004855391085    0.24197450774706   -0.33317334988505
O          -1.38253085350007    0.86155070661909   -2.67451984156638
H          -2.25050552379126    0.52469654387385   -2.87941307420610
O           0.87626953975566    0.76304845165086    2.49133702780285
H           0.40151157006516    1.32729864757689    3.10494557708388
H           1.04854171036221    1.31857456506742    1.68213561684182
O           1.18811021194742    2.14014558960916    0.29114584248121
H           2.06178013729608    2.41736178011377    0.00888464332805
H           0.88619885076197    1.48163637375253   -0.37904375732791
O           0.68497151075601   -2.30069449634111   -0.23040851345165
H           1.34458122173874   -1.66094867522972   -0.52362816275018
H          -0.00082541582893   -2.26318370500287   -0.93513923483879
O          -0.63739185808818   -1.03258282254053    1.52731102534027
H          -1.16389163427221   -0.46912470021863    0.78289291350189
H          -0.05980388211072   -1.66338284180843    0.95139320121185
H          -0.00354395481341   -0.35279335373187    1.98314360332712
