    19
        -40.91974964
S           0.02495606818641   -0.66190137620369    0.52228272332369
O           0.80237215202930   -0.48005347274898   -0.68643224880656
O          -0.82055944431241    0.45952401797270    0.82478725968797
O          -0.81032725379726   -1.94005668999465    0.42084265443738
O           0.96232997259328   -0.99282344153916    1.68667929829916
H           1.60938013381819   -0.22600221199108    1.87456600208261
O           1.21744883100927    2.12156264997377   -0.04006198784393
H           0.32314908905451    2.14499230923056    0.32214515988848
H           1.22976836209754    1.32222549812529   -0.58963116245684
O          -1.22043038748551   -0.42524870891990   -2.46986428081944
H          -0.40735431692892   -0.39972296078777   -1.93298494616143
H          -1.06683722270888   -1.06680313771983   -3.16650588641198
O           2.54732863452425    0.98565514153333    1.92448287268163
H           2.13618570300312    1.58238206891297    1.24599309469625
H           3.42282865951919    0.75973326507666    1.60099726025085
O          -2.91312832061781   -0.83779217388464   -0.43424666105491
H          -2.75593966130282   -0.04383765379769    0.09267476176328
H          -2.53013955387794   -0.64645695467409   -1.31766615566802
H          -1.75103144480882   -1.65537616858320    0.12194224208604
