    19
        -40.91974978
S          -0.43416311383222    0.63990726717800   -0.33718044899113
O          -1.01546135244726   -0.14550486290306    0.71608031508045
O           0.91648329091977    0.23587930930811   -0.67028684914633
O          -1.31953577820777    0.58748998659953   -1.58427599469602
O          -0.45229665212614    2.13379705873372   -0.00339736685095
H           0.12087904913461    2.33987597217132    0.81579264268613
O           0.38047069841365   -2.22632096228223   -1.63155553286237
H           0.71092078484608   -1.37655100942937   -1.28693311192157
H           0.75802818274430   -2.33037557750767   -2.50739573441462
O           1.45749098026750   -0.15809750198098    1.95871114214931
H           1.60567816625300   -0.18663704445796    1.00044982406097
H           0.55237412519084   -0.47537337745052    2.06673667279303
O           1.10322605756274    2.44786405494601    1.98762853956897
H           1.30952868577814    1.49252300077683    2.16215823474569
H           1.92456596584189    2.86314536424726    1.71348125488628
O          -2.21811991713424   -1.73869468008852   -1.19808782368487
H          -1.36234602606524   -2.17238711989935   -1.40640276598231
H          -2.22027290899922   -1.61988272895980   -0.23964309481210
H          -1.81745024813374   -0.31065713900574   -1.55587990261135
