    19
        -40.92079098
S          -0.06525166256742    0.96559895745488   -1.12676309731725
O          -0.65857593913032   -0.34047876506739   -1.41961585162789
O          -1.05553207852597    1.97027056185445   -0.83642188450398
O           0.98358760492025    0.85076768838574   -0.12270393826238
O           0.68035204215221    1.41176881342350   -2.44962533569987
H          -0.03256890872295    1.61406924075221   -3.04740904169403
O           2.43609348371040   -1.32887772843642   -0.25602375464416
H           2.04247685383221   -0.42671723142391   -0.32064184238382
H           3.10123987193768   -1.28815542822076    0.43406382220681
O          -2.36491139189445    0.87971220356928    1.18397810468783
H          -2.82892346576788    1.57998120626306    1.64673926892436
H          -1.97062181222500    1.29397137136425    0.38605719614433
O           0.03379215104349   -2.09506496514127    0.18336034814502
H           1.03277557053680   -2.03871671500825    0.01276352147973
H          -0.35060890084246   -1.45814734304334   -0.56313981498976
O          -0.16801924310698   -0.35525433218689    1.95654528199421
H          -1.07946245005310    0.01049162410442    1.86943754350914
H          -0.11440940361182   -1.49585739986918    1.05329868366178
H           0.37856767831807    0.25063824122467    1.41610079037250
