    19
        -40.91940427
S           0.49553565026377    0.11016520805603   -0.94084378137111
O          -0.81029633706844   -0.41966487121415   -1.27359658253049
O           0.39928118860525    1.24489397531213   -0.01547627235740
O           1.37305852607493   -0.92992168423889   -0.39406572007462
O           1.19064650304496    0.61770149026700   -2.23633117493368
H           0.71203953310249    1.44757788589682   -2.44486864764797
O          -0.14323455577047    2.87651940630983   -2.01398093163612
H           0.36223291232861    3.68986077835136   -1.94416092403261
H          -0.14403269623878    2.46880293043965   -1.12627488477184
O          -1.84555409884417   -2.15038212467788    0.33251043149933
H          -1.99274379752551   -2.94075062728187   -0.19144360350026
H          -1.57773693543515   -1.43966470839258   -0.31364601473989
O           0.13665612084750    0.45467044644343    2.45198031528912
H           0.16947802313600    0.84234467466274    1.53858391387631
H           0.88805212542270    0.81999828654761    2.92383323214919
O           0.32018505044300   -1.92458250976397    1.59818464148612
H          -0.61449309508519   -2.13010663530728    1.19391033191149
H           0.87073867596728   -1.59525133367283    0.74125471778668
H           0.21018720673120   -1.04221057773754    2.11443095359808
