    19
        -40.91974970
S          -0.38769988241304    0.08732139398452    0.74433322096156
O          -0.75928169426722    0.71487614031211   -0.50727714420737
O           0.73811790416948   -0.79664689714472    0.62106762533273
O          -0.10589097206388    1.15580549250244    1.80294902385642
O          -1.60460576450423   -0.62737470161623    1.33768949290000
H          -1.93181220606345   -1.37672333185403    0.72658465635195
O           1.45852573645778    2.19972520453585   -0.89529474014626
H           0.62345086291667    1.69704454239882   -0.88954184970206
H           1.22247734941595    3.11841087486429   -1.03945621421125
O          -2.32033212981285   -2.37515160950642   -0.36988864693170
H          -3.12442263227140   -2.10168567774121   -0.81802663150062
H          -1.57710018926629   -2.25739401433670   -1.01746322168703
O          -0.27077512722227   -1.60436387579541   -1.82685673730018
H          -0.47168731720153   -0.66165051670379   -1.71730037544395
H           0.46430138636066   -1.76068617220741   -1.22128494552996
O           2.38855107532634    1.26682061658377    1.43772888016977
H           0.91227424782738    1.29114737690163    1.82246356332942
H           2.44036701376468    0.32194972542029    1.24462633125689
H           2.30554234886613    1.70857543944022    0.56494769247578
