    19
        -40.91974992
S          -0.66388289464291   -0.23997900900541    0.46072250891835
O          -0.52138634928643    1.13575641105395    0.07184089978349
O           0.38719585196343   -1.09070943622656   -0.05868370209312
O          -0.72447151674539   -0.35329991057556    1.98560950260251
O          -2.02660519459995   -0.80434021777371    0.05100724679901
H          -2.13619582682316   -0.81454696521048   -0.96381242416724
O          -2.05773648311269   -0.83765583224906   -2.49467000341381
H          -1.19226989681597   -0.37877502664814   -2.65607212365406
H          -1.96064402487291   -1.73513201903360   -2.82233582949292
O           0.33058337867115    0.26088632772317   -2.41081651877501
H           0.15334017686021    1.06566932358919   -1.90824613028065
H           0.65973171125167   -0.36523377805958   -1.74707477049499
O           2.47055884096127   -0.03254194997167    1.28806529857444
H           1.81575270078724   -0.48364061213882    0.72435065702056
H           2.94483856756168   -0.72088782215076    1.75888779999281
O           0.74592139397378    1.63728305640176    2.47810607122496
H          -0.19757522657231    0.44399799540405    2.36267464983645
H           1.56278173594746    1.19044775965935    2.16672336648796
H           0.41006306549658    2.12270170523231    1.71372350112364
