    19
        -40.92120606
S           0.34229949249225    1.33553302969474   -0.03646128839994
O           1.22915478581520    0.41787349741663    0.67945354812325
O           0.94689205186766    1.91804923950000   -1.20273277548940
O          -0.96669243745698    0.73915013491493   -0.24806040503217
O           0.07127370372922    2.53307149227103    0.98533607558213
H           0.75546077079305    3.16647170185623    0.79036158681932
O           0.16752752773760   -1.75639341513313    1.19371246966689
H          -0.60261360005782   -1.34789009731338    1.71198996989414
H           0.75790837770536   -0.90354200689152    1.01221770678209
O          -1.63114123003420   -0.17980893615151    2.11281850863587
H          -1.56312791012299    0.27116644984303    1.23976440447359
H          -1.36670689409963    0.46772522377716    2.76891509705133
O           1.26648561711988   -0.49384077987415   -2.29908945991691
H           1.48377062756907   -0.37473681364053   -3.22604377782242
H           1.22106903343835    0.40139083527554   -1.91111237389416
O          -0.74962417503938   -1.77861806368358   -1.12669526966182
H           0.03163138888618   -1.55923831245910   -1.67804832548101
H          -0.22354790888938   -1.94699972659280    0.21838920232226
H          -1.17001921165046   -0.90936347268008   -0.98471488368782
