    19
        -40.91793096
S          -0.75295717211807   -1.57074308329662    0.23793380083652
O           0.71672193273204   -1.49091962415769    0.22859390686490
O          -1.27412922752999   -1.75076173182629    1.57349981292377
O          -1.34018776713814   -0.45276364050128   -0.47142378959927
O          -1.11606150543376   -2.86752779102515   -0.59063141117020
H          -0.87613426157373   -3.59073070499743   -0.01759262010860
O           1.64473707085590    2.04882279080377   -0.81488749787198
H           2.53136777319165    1.95179948793493   -1.16816091703531
H           1.04066403424397    1.57597649139881   -1.45073471155258
O           0.05955986905982    0.66894844163613   -2.37032512304388
H          -0.59424184412580    1.10992687598913   -2.91607083220956
H          -0.45224315463739    0.15575932534877   -1.70060381464882
O          -1.11404481820846    0.83438813293588    1.96646283422835
H          -1.26938686000607   -0.12977349021533    2.08768254653328
H          -1.56920282946483    1.03370251811496    1.13977168995783
O           1.32296923504229    0.64938862474227    1.27872974870673
H           1.48228891602276    1.28132370321591    0.47446039642509
H           0.39148700893312    0.86291102456212    1.66595271076421
H           1.16879361015745   -0.31972736066524    0.84734328000536
