    19
        -40.91984715
S          -0.06112240837160    1.08470251552271   -0.08267070190168
O           0.07427368130478    0.59353332234972    1.30323066714870
O           0.95371180495109    0.44772052321484   -0.92951402255794
O          -1.39777949222236    0.89177650750547   -0.58397597822264
O           0.23447307084817    2.60779813874742   -0.05508250558565
H           1.20660943756880    2.66612623015545    0.07071671839341
O          -2.97671679107488   -0.98355904443492    0.30029105409438
H          -3.24226386129340   -1.47340823483250   -0.48135903074493
H          -2.52795013088419   -0.16662998999763   -0.03050393783916
O           0.50749670168980   -2.11526760775411   -0.74934752794033
H           1.37052655876738   -2.53407301356428   -0.72620502369771
H           0.67163575502415   -1.15619500415767   -0.93736636773802
O           2.82099468038266    2.14203114135332   -0.19198803911053
H           3.24752418057063    2.54712863788973   -0.95073686896340
H           2.36182380262395    1.34329621821175   -0.52085393454533
O          -0.79949114888639   -1.68482841037145    1.40565456922482
H          -1.75829016763105   -1.52187774229216    1.07488522683712
H          -0.28844044204447   -2.03396955912230    0.59867599279415
H          -0.39701522151628   -0.65430460866693    1.48614969031144
