    19
        -40.92071426
S           0.31734747313357   -0.69476457710327    1.26992569796212
O           1.71301832726797   -0.94077074192911    1.55128614024296
O          -0.04221320659508    0.70424378924222    1.24931950180574
O          -0.11149752189951   -1.35830012698818    0.02249781657828
O          -0.51054871122407   -1.38345971173893    2.42613604847671
H           0.02304408367598   -2.13305569710292    2.67427714996598
O          -1.14567609831972    1.68269373254497   -0.92653728744420
H          -0.85709705226499    1.55458670775503    0.00638286559389
H          -1.89644042690268    1.05974189180557   -1.02261855410987
O           2.49386331976059    0.99443877127541   -0.02821667357154
H           2.14685856376417    1.75399789218955    0.44886682814980
H           2.39625329565660    0.23536679191516    0.59433348023551
O          -2.53330222225560   -0.59111162950139   -0.83989284249155
H          -2.87206365415240   -1.24028253417560   -1.45796856388921
H          -1.73330823638768   -0.98097324005333   -0.43468934820013
O           0.73006374846266    0.26690254456898   -1.70500945576680
H           1.54016419740639    0.62275857827633   -1.17708885335203
H           0.42440417405503   -0.53142549749650   -1.13682756599164
H          -0.08287008327218    0.97941305655846   -1.51417636418226
