    19
        -40.92129505
S           0.41495897965878    0.92083139989191   -0.65475476699655
O          -1.01611682581206    1.18407413136588   -0.54070934440353
O           0.92292918742649    0.46553669892166    0.66577074127380
O           0.75332832326271   -0.01895329449119   -1.69087802068342
O           1.14123861272881    2.26127737447064   -0.95851324956512
H           0.84861036555186    2.84566816102809   -0.22771519534243
O           1.11521053035751   -2.55117953244802   -1.19478414640131
H           0.96110185494167   -1.64175552549235   -1.55388444860369
H           2.06134618585931   -2.70253201943093   -1.24748081642681
O          -2.16668611329692   -1.03293247001326    0.20071510294199
H          -2.89480202260552   -0.79302755413269    0.77761417604721
H          -1.82547675254033   -0.18832314550725   -0.18936964287504
O          -0.12591373126695    3.00081370509605    1.22787799921100
H          -0.81074405200026    2.52152016059146    0.73383847716101
H           0.33550978310156    2.32996723853796    1.74271467639509
O           0.10840868384970   -1.82734153283500    1.00864549801873
H           0.52090400563182   -2.28565604839901    0.17997103664278
H           0.52753696916178   -0.82839234572166    0.95704512336844
H          -0.87134398367248   -1.65959541193179    0.76389680033587
