    19
        -40.91821014
S          -0.27723146662698   -1.18778230581142   -1.56688489972440
O           0.63583668763803   -0.09004277134632   -1.84861645970612
O           0.20814884951786   -1.98062362144316   -0.42443796391180
O          -1.64608762109130   -0.76878001425607   -1.41130144452994
O          -0.21232763264264   -2.16242924602401   -2.80565072335436
H           0.70597658005890   -2.41437603472114   -2.82125854717232
O           0.48010562441491    1.90040581279457   -0.24131952563388
H           0.55846159956943    1.13838546737908   -0.88622273980261
H           0.74314905484195    2.67868236118253   -0.73534528634449
O           1.61657707504727    0.83399218301817    1.93574572054394
H           1.54096704500969    1.46307302985978    2.65570736238409
H           1.34032634076388    1.29927794038234    1.11510448160195
O          -1.81015920296872    0.72486484730660    0.71567287918662
H          -1.17464031981005    1.40545790401730    0.43413574521369
H          -1.98345110496816    0.19672970531833   -0.10065526950406
O          -0.25015221344527   -0.93682725432954    1.75695590783104
H           0.56562099547307   -0.35991438283557    1.92455078198373
H          -0.99977547066012   -0.25998358973433    1.44886891223622
H          -0.04134483011229   -1.48011001077434    0.85495104870955
