    19
        -40.91873030
S          -0.98542715274025   -1.31571294138937    0.47026022297272
O          -0.07943570373210   -1.50402536533555   -0.65016044526246
O          -0.25718883014458   -0.98369305082116    1.68652554791652
O          -2.03397283658274   -0.35210948295629    0.16239312390787
O          -1.71508337421876   -2.68566849450111    0.73909134694360
H          -1.02461421763842   -3.23120804637787    1.10252740624918
O           0.58736523798580    1.42465064467673    1.45556344076384
H           0.42054672034441    1.91084056195841    2.26520327962258
H           0.28918298317319    0.48426262810979    1.62676661077847
O           2.23227489100542   -0.00620492220230   -0.41642722569931
H           2.09014360937473    0.54889756926109    0.35740861435684
H           1.60341812158202   -0.74285410773727   -0.33812168628869
O           0.45594226320411    0.52791059515953   -2.30679881031651
H           0.11895362395865   -0.35910419649285   -2.07002501970436
H           1.34435200045174    0.53384762595905   -1.88309166181250
O          -0.91317983243874    1.72144912924980   -0.61087497745592
H          -0.33195745191979    1.31719970583913   -1.43378441603342
H          -1.52210687637340    0.91563517432428   -0.33334736241220
H          -0.27921318529381    1.79588697326475    0.17689199146041
