    19
        -40.92079117
S          -0.77368078999319    0.47128174697698   -1.17730176396229
O          -0.42991994781876    1.84276141454823   -1.45102793180901
O           0.31169450952944   -0.45572568072442   -1.50383639907141
O          -1.27495489743175    0.23737383606405    0.16982095383707
O          -1.97446194702252    0.08869667869779   -2.13481447560660
H          -1.67257886620044    0.37437215342495   -2.99139820477654
O           1.13470880405202   -1.70804254448472    0.46568853368249
H           0.25770452781265   -2.15764649168687    0.70807383242247
H           0.89613307274112   -1.24727816432250   -0.45243736856621
O          -1.31771704565896   -2.27101538740352    0.93543984337839
H          -1.49935831892858   -1.36351757652791    0.59451960348416
H          -1.68107251296810   -2.30784578746457    1.82253126856472
O           1.75869875030442    2.16532030694561   -0.00450313013820
H           1.88572812174094    3.10614017974162    0.13192834920905
H           1.00169150960066    2.07875102211182   -0.62355523438149
O           0.86567905607438    0.41175659082452    1.74943048395322
H           1.37780561486049    1.09216920437624    1.25252345517094
H          -0.04348416051816    0.50220874593383    1.39873525790373
H           1.17738451982392   -0.85976025703413    1.11018294670885
