    19
        -40.91339503
S          -0.21817692289651   -1.63508699424543   -0.61906119772505
O          -0.93314622528550   -1.57531655173390   -1.85050507360484
O           1.03484711704494   -0.76726426940208   -0.70599085364245
O          -0.92289035236266   -1.33552473853137    0.59157756146234
O           0.35357088083484   -3.09851065427756   -0.46125512899403
H           0.52930824858347   -3.44892127787270   -1.33257169050414
O          -2.05665818689020    0.72827269237225   -0.83750939313436
H          -1.97502697865339    0.15521833434711   -0.06518342934274
H          -2.02001587238757    0.12692802856335   -1.59057450928806
O           0.31615039153033    2.04210330572886   -0.96035369984086
H           0.83569294507724    1.29017768418926   -1.26055106575294
H          -0.61662151843484    1.74856900763114   -0.98650876059608
O           0.73150740054342    2.16313604693746    1.65611352825878
H          -0.10733837922288    2.44675315199557    2.02368132513557
H           0.65165149909187    2.26499431860555    0.67600465439168
O           1.35682139486631   -0.36778204650803    1.70189041682987
H           1.21519438923456    0.61911613505816    1.79698995566375
H           0.50696137714364   -0.78459940716306    1.90474345377136
H           1.31816879218720   -0.57226278570506    0.31906389691927
