    19
        -40.91893418
S           0.02341747329620   -1.72838199397243    0.15536751525546
O          -0.75986730788652   -0.93027347806019    1.11082433421823
O          -0.78508101106893   -2.22233230373235   -0.93047845494238
O           1.22770384893150   -1.02709955540436   -0.24451448976294
O           0.51067297870618   -3.00162669210732    0.96796328291543
H          -0.21923191289609   -3.60647627132126    0.87546952759130
O          -0.45339259019338    0.09282173333877   -2.15137974764277
H          -0.72915683705035   -0.79062374425391   -1.83212649238572
H           0.50518963494660    0.08261676136060   -2.07155596524548
O          -1.48461756979086    2.07721100324458   -0.78401631291721
H          -2.43113340126039    1.92227410416763   -0.77199944519804
H          -1.09816412782625    1.38221846897360   -1.38262029436098
O           2.10609043951987    1.18457705418660    0.77946700274718
H           2.74107465243493    0.97050813072657    1.46541574422337
H           1.88389105545837    0.32933698202163    0.32833414831316
O          -0.34019209374692    1.47783409421473    1.38959824554397
H          -0.54809459092408    0.42857480283733    1.35088791597718
H           0.66677299160983    1.52101715993438    1.20289732447396
H          -0.81588162226101    1.83782375384254    0.54246615119627
