    19
        -40.92079100
S           0.66311005898933    0.90199866997707   -0.97595978986688
O           1.55613401582912   -0.08539546980815   -0.36631995223166
O           0.26335387261190    0.53616264473578   -2.31021100869842
O          -0.44381810439160    1.22681929150370   -0.08712934608240
O           1.50457819956613    2.23787136935908   -1.08796969678215
H           2.14218520276711    2.04107054729289   -1.76713008374912
O          -0.82375897576179   -1.84176732131161   -1.92241847363554
H          -1.38537337822815   -2.03596712945768   -2.67530168724289
H          -0.35908253855242   -1.00406731105393   -2.13718126063551
O          -1.58340741890947   -1.11209451681446    0.49421639994336
H          -1.42400519446184   -1.58436915466630   -0.35634169764451
H          -1.45607866335336   -0.16926609329764    0.26492894813046
O           0.14628625539828    1.28625179013321    2.46740653347522
H          -0.04020679725621    1.46865998094317    1.51608141800098
H          -0.64498478208202    1.52848270386984    2.95264574503484
O           0.60902989777075   -1.10490395916513    1.68046542652102
H           1.13184963220811   -0.76776673455215    0.82918692058780
H           0.50339308587159   -0.24781951454598    2.21376483885165
H          -0.35920436810282   -1.27389980300802    1.26726676612533
