    19
        -40.91339508
S           1.49913685247270    0.67193761503631   -0.63649276418536
O           1.85970626250295   -0.03238105509096   -1.82186669224790
O           0.08966903697532    1.24052270756417   -0.78138475533556
O           1.61259669508617   -0.00760188500330    0.61939395840474
O           2.41047951522592    1.95793572782582   -0.54069846493958
H           2.62345102043512    2.24331969796534   -1.42731884582955
O          -2.23827128303531   -0.46810633229799    1.65146354831472
H          -2.26407444408240   -0.65019903638894    0.68006136573033
H          -2.02400146111399   -1.30156087016381    2.07415502205645
O           0.52566850674686   -2.16726204259290   -0.69958845622659
H           0.94878519492519   -1.73903048121688    0.05483908634858
H           1.02171398409292   -1.85474830554731   -1.46532353128650
O          -1.86816454667415   -0.90852614214996   -0.93747480068853
H          -1.11252153292536   -1.52929265156487   -0.91375528556542
H          -1.51730313389930   -0.08216155212080   -1.28318628372600
O          -0.46010317818657    1.43848383161301    1.61023794521514
H          -0.24505320014302    1.43352437595244    0.22824897287522
H          -1.21112186791168    0.78733190536610    1.73291972452265
H           0.34940758947322    0.96781447280856    1.85577023656732
