    19
        -40.92267745
S           0.10590757872876    0.22576015305224    1.03527700166325
O          -0.78270154129044    1.36433483605311    0.85522053801546
O          -0.58546160558348   -1.04253762830898    0.99123714033551
O           1.18561014145989    0.26711983332676    0.01766678385950
O           0.80847345885742    0.34660170162728    2.41611320041624
H           1.21821448043438    1.23940017986695    2.37787644142441
O          -0.17253956321308   -2.82304835658936   -0.87086900168057
H          -0.40029499031944   -2.28808951848102   -0.07080770763574
H           0.58155142352496   -3.36397250036095   -0.62843167816284
O          -2.01239408197923    0.37285164532221   -1.23652882464075
H          -1.66293941841707    0.88557166444178   -0.46906372893041
H          -2.54009932564199   -0.33253879062392   -0.85197380289726
O           1.47851141636628    2.69615677465434    1.46160676361150
H           1.97246863236276    2.34386988220555    0.71417648455909
H           0.54538359373861    2.65730827408645    1.19724217856703
O           0.18823941422115   -0.60171274531436   -2.04985517056268
H           0.08064304216138   -1.58127447875777   -1.76806388735895
H          -0.74449069006002   -0.18582705176300   -1.91047589738694
H           0.73591804465816   -0.17997388444416   -1.21034683319141
