    19
        -40.92218935
S           1.05015191036518    0.47511339289216   -0.10514366514707
O           0.65637175796018    0.30512594489230    1.28966769663120
O           1.35497168739001   -0.80989493789152   -0.73394270528951
O           0.02945785216021    1.20362489768051   -0.85190938321265
O           2.36624322722231    1.30550463006585   -0.14238047062270
H           2.09592035484379    2.14305697766199    0.28835284695567
O          -0.86733981796813   -1.75000198457903    1.71039839761821
H          -0.39726026909797   -2.31534145783684    2.32714950158343
H          -0.33257366148103   -0.91360114186181    1.64116910202960
O           0.77070254186293    3.02873006319564    1.04411580914277
H           0.18366685317081    2.86923166922747    0.29307588077165
H           0.58141067918983    2.31026116106778    1.66182318495276
O          -1.88298061167737   -0.28915325863270   -1.76556150446710
H          -1.22561386928132    0.37017385736145   -1.41405669712279
H          -1.87127971651755   -0.19237804503081   -2.72023265261341
O          -0.65249501458130   -2.24715484155626   -0.75473911369782
H          -1.28461100232913   -1.56639714810256   -1.21181260864293
H           0.28065709826722   -1.74263307254172   -0.81448975281089
H          -0.85540000949212   -2.18426669602620    0.25851613394385
