    19
        -40.91339511
S           1.66169495880086    0.43935634610733   -0.38797556403669
O           2.02614191494824   -0.16034075880034   -1.62841910656445
O           0.40678960408727    1.28902329750089   -0.57374829277180
O           1.49911867198353   -0.40810717235670    0.75543467095007
O           2.77427410000616    1.49605355058562   -0.01514664922317
H           3.13933395035236    1.84769384704610   -0.82511570125000
O          -2.46757614634109   -0.22509296796748    1.34997673052106
H          -2.40952724243132   -0.27190246199178    0.36408642034279
H          -2.46347002773720   -1.13191399148021    1.66130248563372
O          -1.87758257864168   -0.39221340931986   -1.23018086464422
H          -1.34251605454979    0.38599970594991   -1.41340009920231
H          -1.25668156891789   -1.14807968512189   -1.23176650724050
O           0.20146208815373   -2.11885433784997   -0.96883752415472
H           0.60349486836443   -1.88424655987893   -0.12332510717679
H           0.83305046604680   -1.81359236725539   -1.63056978303477
O          -0.37701961325991    1.27812707623267    1.76023420603818
H           0.29712457378566    0.62805930610649    2.00517160883577
H          -0.00399443971997    1.41107139591906    0.41846710351561
H          -1.24411751493450    0.77895918655367    1.71381196345259
