    19
        -40.92079105
S          -0.01399418052622    1.09109070264074   -1.00772519361521
O           0.95898522939442    0.03183602652137   -1.28196523575415
O          -1.19932872128226    0.97624842234751   -1.81763336775003
O          -0.27352237203193    1.20624015137484    0.42076512808148
O           0.69612883456714    2.44816648057642   -1.40649392215446
H           0.73128427091212    2.40813377454273   -2.35712249531052
O           1.79642129488703    0.79281255491396    1.97762736614153
H           1.07186608907438    1.14841802098257    1.41061718098282
H           1.51616356964025    0.91372511178053    2.88709161476283
O          -2.03217104909894   -1.46163186589637   -1.22658284850367
H          -2.96004237887438   -1.52104610339051   -1.46182056125439
H          -1.72486200757960   -0.58570781734070   -1.54604032965495
O           1.41990530764616   -1.38842384711652    0.69220782809344
H           1.31946863387172   -0.87939853050936   -0.22521446860548
H           1.75973691754393   -0.65296666391867    1.30359165212964
O          -1.01627286534950   -1.23379455628234    1.19512315419787
H          -0.96879962225467   -0.26104522083918    1.09842583848032
H          -1.47744134241191   -1.52888904514659    0.37516191561383
H           0.39647440186661   -1.50376760523717    0.96998676411633
