    19
        -40.91339502
S          -1.49339085377736   -0.76908381381052   -0.53113120448132
O          -1.34587964762107    0.42840578590238    0.40435904278180
O          -1.80743971737430   -0.31819738737622   -1.84616018857811
O          -0.37411966521908   -1.64703751303783   -0.36254343018415
O          -2.75620999473105   -1.52976579114091    0.03478314376046
H          -3.53976868248677   -1.14035333035040   -0.34904853742838
O           0.96052452999631    2.03667732681630   -0.35189239012316
H           1.07501317312318    1.42511645361096   -1.10679748192920
H           0.03034789364563    1.98528579578408   -0.11203545741585
O           2.23646012136473    0.71636385074735    1.56179729422819
H           2.96215533956710    0.27799761845658    1.11405286459580
H           1.84308181175850    1.34039083161111    0.90357072624717
O           0.91262701968077    0.00474877664418   -2.15157375704206
H           0.83562546975504   -0.79230006741170   -1.61265666286467
H           0.04986629369121    0.09713432156860   -2.57247901158270
O           0.07353110615514   -0.63073686791445    2.11459412485870
H          -0.77820115065381    0.06250318526851    1.24845524714996
H           0.17968862582457   -1.42114848073774    1.56597479347023
H           0.93608832727249   -0.12600070466991    2.04873087452643
