    19
        -40.92071430
S          -0.22620795539017    1.40918021604093   -0.39986307848308
O          -1.25115122464825    2.13631412703811    0.31289938573865
O           0.84162351986008    0.94325304272141    0.50717259307515
O          -0.72701044648630    0.31396724091805   -1.19782313946776
O           0.46576262906184    2.43683905712750   -1.38049849300266
H           0.39879904651604    3.27008403005514   -0.92287565849737
O           0.21437871295892   -2.09606005328818   -0.74419664375111
H           1.17372361608847   -1.91602024717091   -0.83842524875495
H          -0.20997191412821   -1.31567786402817   -1.17025071420379
O          -2.48161017174925   -0.06274907986804    1.02309557875409
H          -2.16151562228133    0.85634120568630    0.86262470905557
H          -2.78020154484498   -0.37626803967185    0.16433510634289
O           2.53975083209229   -0.80301829716803   -0.61566047151160
H           2.02074926397436   -0.04989227441428   -0.26954725101050
H           3.34158795829274   -0.84700244568582   -0.09265098565625
O          -0.21771084230477   -1.11872112752289    1.48778550244192
H           0.30087081866645   -0.26201368281744    1.26337622899707
H          -1.19838269354577   -0.80919806991327    1.43391214480201
H          -0.04348398213891   -1.70935773803475    0.57659043512771
