    19
        -40.91384582
S          -1.00604477239612   -1.06445074442710    1.27276343143244
O          -0.54822058574144   -0.47825844723712    2.50105113835640
O          -2.11584712680046   -0.30918403615415    0.66696375037379
O           0.06054190786967   -1.27041145849830    0.29793409329331
O          -1.58378279554096   -2.50030403890252    1.59350498880530
H          -2.14084208768547   -2.37301955625286    2.35670197654707
O           0.94116584922735    1.14472861020135    0.82228346095303
H           0.76509607892414    0.18344811612960    0.69652605874523
H           0.78311195558512    1.27961673589475    1.76223168756730
O           0.03381548151574   -0.27318910200151   -2.17490705991325
H           0.02131680088588   -0.91084538975480   -1.43049191338535
H           0.95076035863187    0.07903206913601   -2.19200017790455
O           2.43682220891996    0.75211322502263   -1.52367161101795
H           3.11351820245900    0.09922012819362   -1.33596835542280
H           2.14794473879730    1.10631940585204   -0.67051910874176
O          -1.12413279518373    1.41894828286974   -0.76881396519362
H          -0.34124490845304    1.62605840370235   -0.18397289395274
H          -0.70669349382821    0.76998828590144   -1.52330537408006
H          -1.68728500718671    0.72018950032013   -0.16631011645789
