    19
        -40.91384598
S          -0.94848913854001    0.00562567226000    1.69324403442211
O          -2.10126554312908    0.01790693705774    0.77668021339147
O          -0.63032491502909   -1.31512109206320    2.15846061949524
O           0.18768668532159    0.69536149070482    1.09021681186134
O          -1.37600209141462    0.88015218420019    2.93854110722582
H          -1.98247944075474    0.32882762287234    3.42555992862282
O           2.41639025085883    0.21668370862229   -1.71508773549565
H           2.04166873425983   -0.58865955078551   -1.33063687172432
H           3.15396310995320    0.47076572986854   -1.15749759914363
O           0.18694231424105    1.69011818543490   -1.38421180134675
H           0.20554937554708    1.63437987740356   -0.40575902781796
H           1.05708194305602    1.33898275330271   -1.67505109269882
O           0.75670382016080   -1.49810368455582   -0.23181798625618
H           0.69884243002679   -0.70314323102047    0.34745389292688
H           0.53141080302759   -2.22287086687129    0.36034068772965
O          -1.23378235771015   -0.34758438908621   -1.49152176097727
H          -0.51366544992075   -0.99330352038425   -1.24192695488019
H          -1.74661367225206   -0.19519576054149   -0.55200858560095
H          -0.70361684767642    0.58517793358293   -1.60497788973657
