    19
        -40.91384594
S           0.80102739335264   -0.40736425771048    1.72012689943530
O          -0.34143152300199   -0.94692231937844    2.40253712540042
O           1.49098710863976   -1.41281336000038    0.89420095724057
O           0.49344216937436    0.77818819928459    0.92631293686723
O           1.85251207026731    0.05745053934459    2.80487022035643
H           1.89822724743258   -0.66591845582378    3.42422966516775
O           0.98901564617888    0.99468770546711   -1.68514062494544
H           0.12082171561140    1.36240370203332   -1.96093742031663
H           1.03011911307408    1.14140397489456   -0.71683297175144
O          -1.63366509018891   -0.44959584505928    0.00392154980798
H          -1.96106528673156   -0.98407708505970    0.73456452198837
H          -0.95209828455848    0.12272064164550    0.42676146148570
O          -1.61891008440623    1.63675501363206   -1.87812144713812
H          -1.86919906684221    2.44475731436401   -1.42648063825262
H          -1.92624621630993    0.90321936543177   -1.32652389638437
O           0.42255361430022   -1.39813976442416   -1.31694583218515
H           0.96829718326961   -1.51745573661943   -0.39132276104366
H          -0.51071188179131   -1.23930907634954   -0.99816135288957
H           0.74632417232247   -0.41999055567915   -1.63705839285181
