    19
        -40.92071387
S          -0.33872932835608    0.74236394081316   -1.23749351209903
O           1.02940493046471    0.40796397409226   -0.79394091115477
O          -0.73234324910623   -0.04176000392706   -2.38541704486086
O          -1.26284635342231    0.67077915393567   -0.12948792535701
O          -0.27742039266370    2.24855809512732   -1.71049431878663
H          -0.01186546657476    2.19097230883251   -2.62397950793454
O          -1.45331974562164   -2.07183401225722   -0.89893837526011
H          -2.20423150480835   -1.68681395594558   -0.43755661427090
H          -1.23337142650607   -1.42659338273291   -1.61201443300844
O           0.60967367804080   -1.68918291972964    0.53290892347047
H          -0.20852179357385   -2.02519672563664    0.00459487725399
H           0.95254581236847   -0.91781779597379   -0.05107000022139
O           1.68581902980474    1.44972533640164    1.58938556725744
H           1.49847525558424    1.21420217460604    0.65900933922579
H           2.63906253922444    1.44556765140088    1.68678161361069
O          -0.36227061172090   -0.14113003639070    2.20212483388436
H           0.37942078544896    0.48941028545250    2.31851173733136
H          -0.91135637142226    0.27552247573270    1.49848322304910
H           0.20187420287080   -1.13473657384054    1.38859251785231
