    19
        -40.91793146
S           0.03350118731364    1.75143592281864   -0.14727728004430
O          -0.49940751014484    2.22371277753970   -1.40450088135456
O          -1.00722124447747    1.13843878863679    0.69387716340370
O           1.17360178235077    0.86996792452538   -0.29186703530279
O           0.54294053456089    3.01390903991070    0.65670562367826
H          -0.17518597162307    3.63836027607068    0.59924124428511
O          -0.28484635339196   -0.19568851544753   -2.38642107822536
H           0.62842457463991   -0.28371275974366   -2.08880617235083
H          -0.47000363756597    0.76471008164652   -2.27838960788502
O          -0.19421956571530   -2.57016603513982    0.95730962958321
H           0.55008702628292   -1.96501374502072    1.22670160382983
H          -0.62865319490462   -2.83574428971662    1.77036010673489
O           1.65311221459660   -0.84297145738216    1.62090237848914
H           1.47084023241008   -0.12332146616040    0.97073358187454
H           2.58246104025250   -1.05693392507074    1.51913514620186
O          -1.64248748672051   -0.97740016740242   -0.38845308089505
H          -1.47069265165839   -0.06000562658182    0.13849334427262
H          -1.17195543746119   -0.80003946335210   -1.28865454600731
H          -1.09029555873721   -1.68953737012759    0.12090984972045
