    19
        -40.91359132
S           1.79590313154240   -0.30349549545482   -0.77575206847035
O           1.76278650375162    0.54408360869836   -1.92616773926102
O           1.88039476448250    0.50303752710899    0.50369917222374
O           0.73898727895864   -1.27728448447839   -0.70382702634976
O           3.15528686757183   -1.09015932954245   -0.76363036990066
H           3.83765428838667   -0.46216619017981   -0.99183065928667
O          -1.71341685721520   -1.68382617535939    0.48300646467681
H          -2.17329533553554   -1.28039828856766   -0.25861452080365
H          -0.79474212494422   -1.78997777487236    0.19180457379874
O          -1.57566898616921    0.19240334958271    2.38976697299473
H          -1.63950561064282   -0.59509649734638    1.80332184999031
H          -2.46134290205596    0.37392861404911    2.70733394144893
O          -1.04155787272089    0.55648025768811   -1.58859534078494
H          -0.47434965408880   -0.21558981419382   -1.42259631355650
H          -0.59624751568858    1.03858249514770   -2.29102222698585
O          -0.25177205521336    1.71516035673137    0.70061320839105
H           0.96993738829964    1.09834439290619    0.64280987629292
H          -0.68989903780630    1.43040751751491   -0.13452865564090
H          -0.72915227091204    1.24556594056858    1.43420886122204
