    19
        -40.91384522
S          -0.56217160073950    1.81249566034931    0.40123202450937
O          -1.01954284171339    1.72701328399106   -0.99610774682271
O          -1.61355775197504    1.54277551101936    1.34126048126540
O           0.61937108939890    0.97926648346736    0.60149111386931
O          -0.08109838610480    3.30383722365788    0.60834334049766
H          -0.88511744091589    3.81450040676919    0.65025175746897
O           1.67965958330975   -0.58079306028290   -1.28268184165350
H           1.56626273635082    0.14431364994439   -0.63283574429377
H           1.79674973461182   -1.39144458090339   -0.74000540011361
O          -0.95332535060569   -1.10430300886847    0.86455946772622
H          -0.32248401712018   -0.35088246108738    0.93730118412777
H          -1.74153436327633   -0.77941179230901    1.31158000363688
O           1.44535983894832   -2.53460621958660    0.55428134556638
H           1.97050374934553   -2.40164939117208    1.34554563987513
H           0.53092720499103   -2.32060237744195    0.78828477974637
O          -0.77031605226362   -0.61183459419608   -1.70342713228657
H          -0.94426404842991    0.43860811658664   -1.51957077473998
H           0.30818140582510   -0.65891470862400   -1.69800959019838
H          -1.02360349962353   -1.02836813131582   -0.83149290817938
