    19
        -40.91384529
S          -0.71773819447764    0.70186949408956   -1.66014245375677
O           0.15737590372405    0.05851714620432   -2.59932700557124
O          -1.84490513837195   -0.15729983211930   -1.25971068789219
O          -0.02467343643374    1.21348916496223   -0.48190013249200
O          -1.36295249803021    1.96115295953003   -2.36459224221986
H          -1.65567409653607    1.64053121796502   -3.21342094927726
O           1.28739459856561   -1.05332002219225   -0.32816847995006
H           1.43437573018545   -1.33022980501698   -1.23830569136947
H           0.95448969784133   -0.13056335788109   -0.42091915000712
O           1.95605411475914   -0.10986867453524    2.23245725861897
H           2.56182576199105    0.62575934430673    2.12562846525605
H           1.98292491142828   -0.61406588014577    1.40675407878559
O          -0.64712311907478    0.54334910057652    2.02233538507113
H           0.26266859775012    0.36475130357143    2.34741799572344
H          -0.52497225397941    1.07091817537746    1.20521641623786
O          -1.09914513772669   -1.48942188180067    0.66435172815560
H          -1.01432322739151   -0.68744531964341    1.38197596153555
H          -1.54762221788449   -0.98278822039883   -0.17800585828284
H          -0.15797999633928   -1.62533493285034    0.35835538143747
