    19
        -40.91793103
S          -1.10439901320399   -1.12011282464048    0.78566506147693
O          -1.00797871573685   -1.09061963193012    2.22702361378011
O          -1.64624394442146    0.13749669569636    0.24601484768674
O           0.13361989605066   -1.47998303724919    0.12568225456085
O          -2.15660345126738   -2.23719681290173    0.40445914333588
H          -2.89614694081680   -2.07500575542620    0.98388200348082
O           0.51110006771308   -0.64797896787296   -2.32154815458351
H           0.27879112386943   -1.00038793585232   -1.42954529830124
H           1.16882975315797   -1.24920393892967   -2.67605943151265
O           1.28506948168502    0.16108292154073    2.03091268611756
H           0.47851809911238   -0.27870713837170    2.38356474904093
H           1.62877071425302   -0.47664834728830    1.39409990713234
O           1.14604633994789    1.81590639205687   -1.71984518376240
H           0.95091810599478    0.87947584162216   -1.99891279484951
H           0.67443228099209    2.38063793470149   -2.33546416347554
O           0.07687724534849    1.86050601855207    0.58230950438662
H          -0.75231376609399    1.19864183481123    0.42831646523468
H           0.67237861446981    1.31367853773110    1.22226585909138
H           0.55833411894475    1.90841822377242   -0.33282107884537
