    19
        -40.92045296
S          -0.58937476598090   -1.36033413276404   -0.59992286575431
O          -0.29064729029790   -1.34704192603768    0.82958280234288
O          -1.70820226774807   -0.49647832277061   -0.92660830008293
O           0.59901512302764   -1.07839313476147   -1.38769915082871
O          -1.04945958640093   -2.82976373322286   -0.96848075699693
H          -1.99942089675442   -2.77677395575350   -0.92285583348586
O          -0.95041256672147    0.87787429920127    1.95232904777285
H          -0.83762037920482   -0.01905647970844    1.53613360498971
H          -0.84959307581949    0.75871776212881    2.89866235409610
O          -0.25272459151039    1.48708785808544   -1.72646439702964
H          -0.98472171249349    0.87261222705177   -1.46262936723005
H           0.36777307303167    0.90128017729738   -2.17948523678902
O           2.17606058762165   -0.20860365877227    0.46085600263955
H           1.75520850549273   -0.59349498231972   -0.35081262022831
H           1.80728804985238   -0.75041785020947    1.16859560273268
O           0.83296592312295    1.92372479133805    0.49094097725560
H           0.08822860267286    1.65112654099526    1.14550819903799
H           1.50464102308419    1.11764174072449    0.50737117130814
H           0.38099623501683    1.87029277950097   -0.46502122375535
