    19
        -40.91359125
S          -1.77148832034378   -0.74880745219961   -0.46695859824014
O          -1.78818499594928   -0.59274693018575   -1.88760534518530
O          -0.81002164661797   -1.83889714073868   -0.04108533374452
O          -1.54348341361241    0.46117003927045    0.27770639979900
O          -3.15651947271649   -1.32637281190957   -0.00312426083340
H          -3.38285990541991   -2.02276016964156   -0.61620760379149
O           2.27509985240801   -0.13889520943425    1.74031409378884
H           1.61839369167094    0.58927095943664    1.82214095627990
H           3.13768341022985    0.24678971685236    1.90000590543291
O           0.33113782169763    1.23578602094891   -1.51119878022781
H          -0.42229912915387    1.14079864597882   -0.90395072050013
H          -0.02526210081447    1.01654486288690   -2.37671616802394
O           0.47375900500911    1.83449568682165    1.55390549188769
H          -0.35768066698503    1.37470143480438    1.36042176505060
H           0.68883336232522    2.32414005114954    0.75498800366988
O           1.44549679706366   -1.02676413812341   -0.59317609160966
H           1.84488970730461   -0.80714509280577    0.28949625869669
H           0.22186751020739   -1.55756008583629   -0.28703128253057
H           1.22063850369726   -0.16374838727683   -1.01192468992149
