    19
        -40.91439997
S          -1.17285536984930    1.06276274127379   -0.57498881684866
O          -0.61279389849831    1.30536503340185    0.74765214337674
O          -0.59197324953624    1.82178525489348   -1.64305709340358
O          -1.20868890903826   -0.38824016161226   -0.84170609030124
O          -2.69534930991721    1.50451084652299   -0.46859129184098
H          -2.95881342761450    1.76919209682961   -1.34599015090889
O           1.88072561858143    1.56402368660664   -0.61598508446528
H           1.59809216149211    1.77273963413411    0.27912713957485
H           1.13257799473158    1.82517442839053   -1.17939845952860
O           1.44856927792969   -1.05820058017898   -0.92385051886599
H           0.51503069352392   -0.92154033588734   -1.15426135841007
H           1.83384726033040   -0.15520126198948   -0.88353967395111
O           1.25467655475025   -2.00595236445733    1.45286681598203
H           1.30856875440205   -2.96249018441501    1.40504395022478
H           1.46684904239647   -1.65695522499955    0.52577451827809
O          -1.03038381463750   -1.00384607423504    1.53308552473525
H          -0.07458321187898   -1.47334666476182    1.60983172096620
H          -0.84848408615929    0.00388619708606    1.56496388410336
H          -1.24501207095125   -1.00366708659983    0.51302284129211
