    19
        -40.91440011
S          -0.14783845894970    1.59444884460044    0.52175281921541
O          -0.43223574356548    2.40701179164371   -0.62410081302662
O          -1.18939785707982    0.64766173384390    0.89701250563717
O           1.15042816557373    0.89801447416019    0.43620756839866
O          -0.01280253028388    2.57653093686823    1.76335988473958
H           0.30471806004522    3.40542125339560    1.41494665804243
O           0.78324696007891   -0.81911671334403   -1.66922167478098
H           1.11808831084680   -0.11761941987121   -1.08693050377212
H          -0.09126075946710   -0.49494091470479   -1.97846883290514
O           0.43715415988657   -2.74205632356309   -0.00571355486599
H           1.20265898099325   -3.31892920113379   -0.04301217992804
H           0.54023633948001   -2.07452582606872   -0.76072746370064
O          -1.60700934172574    0.35799729318461   -1.91135864221494
H          -2.11316869111748    0.08359545841236   -1.14120400561719
H          -1.27304860435532    1.24284887776067   -1.68592921043211
O           0.40915609950368   -1.01363989276708    1.79541613926420
H          -0.47254919470747   -0.51632993608545    1.63596593839639
H           0.40662386754418   -1.83426754896775    1.11254640175713
H           0.98700022728271   -0.28210486737389    1.32945896579759
