    19
        -40.92136391
S          -0.13447660588186   -0.83893486432431    1.09464503998846
O          -1.15690428447351    0.03516665603010    0.56512666315469
O          -0.41730970125797   -2.24441523142349    0.94122406140399
O           1.19207242934711   -0.47477951906287    0.56616912483158
O          -0.05068035282566   -0.54713345238012    2.65317280076176
H           0.24127672268675   -1.37215855094604    3.03044373214275
O           1.12969744773889    2.18006664323706    0.96023990088815
H           1.30617691131527    1.22184966402667    0.90777858562679
H           0.67423699298272    2.32028364233919    1.79209087628880
O          -1.05478656080950   -1.84483949170413   -1.58451306651046
H          -0.82758348818549   -2.17980386714408   -0.68745557459424
H          -1.90423715226257   -1.40650312485662   -1.48263860096747
O          -0.46891086798517    1.89061604243611   -1.15277991827519
H          -0.99317680656454    1.33260440245245   -0.53389985302872
H           0.17382395374109    2.32769069646108   -0.55156419875906
O           0.79438841322960   -0.11210812495973   -1.88367241552920
H           0.26787287713408    0.83386122171793   -1.72660953022379
H           1.16002013948959   -0.29174839793981   -0.94059476373616
H           0.06849993258308   -0.82971433395637   -1.96716286345989
