    19
        -40.91439986
S           1.34420445887468    0.64497449753346    0.78423169071522
O           2.02241760306066    1.50517245285996   -0.14000311951638
O           0.02252238158663    1.08946779107448    1.20563446562028
O           1.27669461341223   -0.75888618475785    0.33387139652616
O           2.21543066216554    0.61478514899977    2.11257078163203
H           3.11850887120876    0.75948320615955    1.84283106516635
O          -0.30620269579496   -0.61087176572874   -1.89976897709198
H           0.43595066854750   -0.76672489875774   -1.29298821820868
H          -0.37051544656298    0.36675973173694   -1.97437948721789
O          -0.25423197853051    2.02986137061392   -1.47361793184803
H          -0.76253822801814    2.17466411590228   -0.67026026301576
H           0.67386679780182    2.03738769701365   -1.18409590738837
O          -2.28522264947703   -1.48852377073817   -0.52193027673714
H          -2.47611099858182   -2.38660648785814   -0.79982114068045
H          -1.59524587930245   -1.12539954292219   -1.16866988454086
O          -0.84289754130671   -1.21081840745120    1.49673269134840
H          -1.54437721953926   -1.37108407660897    0.70801692962295
H           0.09176732565264   -1.30923205093048    1.04516426161383
H          -0.76402075520391   -0.19440882614310    1.59648191399826
