    19
        -40.92079092
S           0.71243721557238    0.27070421239407   -1.27460511586068
O           1.14563572993284   -0.97496943650695   -1.85309198953289
O          -0.73898726085574    0.44919797968257   -1.34725443858244
O           1.20200759392546    0.50565398425950    0.07669266658414
O           1.33790440492760    1.43459430962493   -2.14602246065097
H           1.12227166260417    1.18223624299536   -3.03840996531539
O          -0.02581238448553    2.40839997720796    1.40063210629732
H           0.38924534188284    2.49147546232827    2.26148167704151
H           0.57027929093102    1.84381103054642    0.85410615605202
O          -1.80048369790772    0.63843051553640    0.88037783718096
H          -1.49248806754057    0.56606983202044   -0.12554909032271
H          -1.29128109357289    1.45736142420435    1.19647589764688
O          -0.24928764725798   -2.73734322380464   -0.46178380530399
H           0.18390783515069   -3.58890956112861   -0.54611706786562
H           0.22868203608939   -2.12677609727791   -1.06380105527429
O          -0.21506775687238   -1.13300983457995    1.62979519216581
H           0.52663350702408   -0.62439943302391    1.24372171980498
H          -1.26897875123345   -0.17935180662278    1.31161730236295
H          -0.33661796831220   -1.88317559785757    1.00173443357293
