    19
        -40.91440016
S           1.55764584471743    0.01284435361904   -0.63921558463888
O           0.84372238570622   -1.25597230122725   -0.58871195054198
O           1.51127550033385    0.70060419726731   -1.89579321255523
O           1.15588782205378    0.85599498624534    0.50331474532729
O           3.07928725086057   -0.35670670886030   -0.36974107559608
H           3.59839420118676    0.31636415281125   -0.80199458868142
O          -1.48844153205870    1.36156344210889   -0.01474697765411
H          -1.54359426493438    0.97275482252171   -0.91548901434674
H          -0.53763293580559    1.46009254472607    0.15703565631029
O          -1.06094557894786    0.01965577701119   -2.28922916990500
H          -0.92322757000380   -0.89628291987217   -2.03074162518168
H          -0.16623579025158    0.37871401465732   -2.41567242902757
O          -2.14017714011395   -0.41424915723794    1.71911487600508
H          -2.50472794071521    0.02925032233661    2.48762878622485
H          -2.01806987895153    0.29490321172134    1.00601709631477
O           0.27634900265823   -1.03425746408601    1.80934837277034
H           0.69075700466699   -0.12074004734757    1.52736921621684
H          -0.77500535876007   -0.85411785939753    1.85409335243972
H           0.44473898836407   -1.47041538699336    0.89741353651242
