    19
        -40.92120581
S           0.27285863068370   -0.75737092224166    1.11851433476979
O           1.26996644597818   -0.35191188356852    2.07058489469844
O          -0.92263420496765    0.08581703020649    1.13574919371301
O           0.75480921530363   -0.95362125075183   -0.23923897019864
O          -0.23166710960946   -2.20349086202399    1.57248978283478
H          -0.11186586737941   -2.20700343434798    2.51741476261096
O          -1.38703171394637   -1.66322563701606   -1.56863946107785
H          -1.89298909133443   -2.26298095832358   -1.01731796152232
H          -0.50350458123209   -1.57805131515757   -1.14162392130358
O          -1.60698145580106    0.84914090765375   -1.11542688431296
H          -1.41734144170549    0.63639817998445   -0.10174381122531
H          -1.69662512030292   -0.08793457527482   -1.49285308945334
O           1.50224671057021    2.02676560431268    0.88227403479158
H           1.40548407009524    1.19338736643221    1.38238933924734
H           2.30644818088488    2.44064442145248    1.20285531421555
O           0.78948916602547    1.35291256978404   -1.59353639186656
H          -0.64665977879576    1.18830286969607   -1.43695326043466
H           1.07486628195818    1.85635018951192   -0.80115583907494
H           1.04113166284781    0.43587169982579   -1.37378207650877
