    19
        -40.91440012
S           1.12177366245298    0.46980104075478   -1.16488601794610
O          -0.29448721997722    0.61928696125172   -1.47194471094050
O           1.78183763503502    1.65044771286095   -0.69146567313171
O           1.32023346257860   -0.70118640313592   -0.28909476911085
O           1.80532430587796    0.07881747018969   -2.54488731761915
H           2.70688319894775    0.38511737575851   -2.49303515538943
O          -0.35268202381036    2.37308503524482    0.77765367335940
H          -0.97720784158802    2.19113275361745    0.06941393336813
H           0.51853076915934    2.37137641168443    0.34605948375827
O           0.03580231804849    0.03489581493887    2.01824948175298
H          -0.15963134023569    0.97045822495684    1.79008106109462
H           0.70748732969962   -0.24386349704523    1.37447076926896
O          -1.95640186184110   -1.43666770572921    1.34684982593886
H          -1.24853697140875   -0.81426223596188    1.71798903041014
H          -1.97762223604179   -2.20310021920434    1.92333973022266
O          -0.84383673448920   -1.71678250368914   -0.87033019673759
H          -0.92638885833610   -0.78871150136378   -1.29735294834595
H           0.14524262546585   -1.57064522288090   -0.57700818354137
H          -1.40632021950429   -1.66919950221269    0.03589796363593
