    19
        -40.92071433
S           0.90945971650551    0.25955875316705   -1.14016183784054
O           0.93018177834107    1.60395802951267   -1.66919513186523
O           1.31514435470241    0.22601533899867    0.27892195037073
O          -0.34853735091153   -0.42684913864606   -1.32366099856085
O           2.01609112626390   -0.55490999623271   -1.92031226494533
H           2.67216037792437    0.10143261874801   -2.13706987529663
O          -1.59113270331412   -1.35258238528924    0.79826307632605
H          -0.87243959423495   -1.89749756057860    1.18282182406787
H          -1.29637545765150   -1.20333637017773   -0.12976651622265
O          -1.45338707016975    2.13685161743945   -0.72717409647493
H          -0.56021187841004    2.12639546555739   -1.14573449317891
H          -1.98479577524516    1.53688292269270   -1.25877452540915
O           0.86388952132173   -2.12800403671456    1.48306170010923
H           1.17250027707348   -1.33692340897384    0.99803060714160
H           1.39509914215413   -2.18671425940182    2.27844206645319
O          -0.82337932121892    0.91897409724029    1.41161013639599
H          -1.28684068106947   -0.06659545225003    1.26471227076653
H           0.13560444886572    0.72923163419244    1.09939973127897
H          -1.19303091089048    1.51411212071469    0.65658638689673
