    19
        -40.91821040
S           1.82877985829333    0.19321997910057   -0.74952959937602
O           1.82421814053497   -0.45825101394243    0.55175490479603
O           0.97797965666351   -0.54579008042852   -1.69803636019720
O           1.50607619562294    1.59533966415554   -0.68900532464763
O           3.29387398589885    0.06271695195291   -1.31951062270701
H           3.41156740487532   -0.88107723921077   -1.36817928559185
O          -0.96256462689586    1.83672697028812    0.10348818283035
H          -0.03708048150331    1.98335716232518   -0.20873334645576
H          -0.86132357244444    1.37429166343987    0.95347823036419
O          -0.28907493750518   -0.07889428885836    1.95167440945946
H           0.54894656487666   -0.23965736597406    1.42769629147331
H          -0.02739329948699   -0.13529408737468    2.87219317391393
O          -2.02923769048549   -1.60444920611841    0.60457487771030
H          -1.38495643525871   -1.16634253637790    1.20390697809031
H          -2.90013663287766   -1.47684206196597    0.98541093759690
O          -1.42667638790525   -0.10717841869144   -1.40748919891063
H          -1.35300870378170    0.78525743251508   -0.84727351343272
H          -0.40002773063149   -0.32871955769233   -1.62870527826187
H          -1.71996129851895   -0.80841396732459   -0.73771546654934
