    19
        -40.91836656
S          -0.20378297562785    1.69555773165809   -0.98633414559627
O           0.72625014582590    2.16993836480873    0.02180124227764
O           0.44393152063587    0.73016770851671   -1.88844818114416
O          -1.43843752258190    1.18562849932520   -0.43592313816409
O          -0.57922888527409    2.93590759683495   -1.88574754881250
H           0.27484688053204    3.29138936399432   -2.11185230931153
O           1.44255324371049   -1.16328328624681   -0.67407212473526
H           1.05155318847187   -0.37466205906508   -1.28776541373877
H           0.69097386156845   -1.83373850663725   -0.56007685136254
O          -1.36481666735251   -0.56106823614671    1.44845268647962
H          -2.17312359025377   -0.47405139096123    1.95656081729127
H          -1.43337989905560    0.12019867296275    0.72238920688838
O          -0.55475361915384   -2.65330182906203   -0.01520992979268
H          -0.36087633605273   -3.38465588975920    0.57408640845416
H          -0.99294320140748   -1.95660278974416    0.52228363879461
O           1.31237815401050    0.10486174502896    1.48093379252487
H           1.20538667468512    0.99561505845188    1.06079243346191
H           0.42303616251791   -0.13531778681323    1.79015214733061
H           1.53043285480003   -0.69258296663545    0.26797727909280
