    19
        -40.92021795
S           0.30540943077322   -1.00863644401759    0.10918184676219
O           0.35779166257915   -0.57407686311581   -1.27572057033509
O           0.94020889538060    0.05090577391976    0.99060187986489
O          -0.99633425170715   -1.35793629194532    0.58297733575626
O           1.24485850184364   -2.22356771215988    0.27393068481748
H           2.03439802722861   -2.02956130386424   -0.28999992915364
O          -2.55237427462590    0.32892736944656    1.97912152683256
H          -2.57952096571508   -0.01090941381254    2.87547680776182
H          -2.15583352710956   -0.37482968687999    1.43110114651063
O           2.84245861277065   -1.39379153814822   -1.60608412781777
H           2.94829638241706   -1.99660248585170   -2.34616752420865
H           2.01559991623511   -0.89780710934012   -1.75843930538309
O          -0.90117087657425    1.79255716623002   -1.46049333330135
H          -0.39767250650342    2.33008639273070   -2.07488333159718
H          -0.53069338122962    0.89066958153413   -1.50877290889744
O          -0.62280566155419    1.94921951286187    1.17678297768591
H          -0.82494425767289    2.08766372778964    0.22241254846777
H          -1.42440192591313    1.51161592993827    1.55661367471355
H           0.29673019937251    0.92607339468737    1.12236060152010
