    19
        -40.92136401
S           1.17404454284267    0.33259786564561    0.65955586994594
O           1.16110231248384    1.07968906163387    1.89272383051067
O           0.56160734780922   -0.99961419026656    0.80671571474355
O           0.60804352350835    1.03657749888007   -0.46903766702185
O           2.69476575965358    0.04933548168472    0.30204121231555
H           3.13205929493493    0.02219000524678    1.14837132936124
O          -1.30353621174003   -0.11190151095481   -1.84547527125557
H          -0.61352050020207    0.52389940839585   -1.54724392863723
H          -0.77367212126840   -0.90535037788473   -2.08094922659875
O          -1.36132864752092    1.72307511839380    1.48642558597379
H          -1.26564476713691    2.36597479392215    0.77817850100921
H          -0.44702628721589    1.55901489316812    1.81170220800660
O           0.69964067189178   -1.86541576033709   -1.73074155921069
H           1.53407075761457   -1.55033779571267   -2.08233352292774
H           0.73315816201403   -1.70271894544953   -0.76916529410171
O          -1.89396213850440   -0.57578148126706    0.51585124760680
H          -1.80482327739357   -0.40924449643598   -0.56204297165501
H          -0.95395244182607   -0.92495267622207    0.73812561365517
H          -1.88102596998256    0.35296307758296    0.94729833828114
