    19
        -40.92025495
S          -0.16169563182479   -0.05022483125070   -0.89436328066841
O           0.89012583365794   -0.65286552171749   -0.09029031580931
O          -1.48239943233011   -0.47074438179898   -0.43074348245317
O          -0.02372975335521    1.40962107841775   -0.90753243157582
O           0.00156958423921   -0.50523757163817   -2.37226805543744
H          -0.47742339005480   -1.36214523078072   -2.44204051210599
O          -0.89409819088216    0.03464428687811    2.07731200080827
H          -0.23005171310760   -0.64664190641862    2.22139368666984
H          -1.28701063970912   -0.17551950066293    1.19822842654438
O          -1.66123789893028   -2.51533612556042   -2.06600891929023
H          -1.81438563717122   -1.92768424034628   -1.29893068120658
H          -2.45750646663952   -2.48149857242772   -2.60141022617817
O           2.57131971170743    0.83293227977971    1.20850134860995
H           3.23030489419023    1.16088104955324    0.59361284250327
H           2.04640495567253    0.14916346263126    0.71434555408725
O           0.39809362963664    2.11379507366014    1.40902884847777
H           0.17431501779818    1.95686474228837    0.36800766095718
H          -0.18204035845958    1.38129155351808    1.84667555121897
H           1.35944548555147    1.74870435587180    1.46648199484031
