    19
        -40.91793097
S          -1.00179400057504    0.00127141284232    1.44488030147427
O          -0.43369867091174   -1.27663386943612    0.98597899564540
O          -0.31315380869197    0.50990783762226    2.60883981217344
O          -1.08934859372112    0.95326852196741    0.35683003435454
O          -2.48769495996239   -0.32229593133739    1.87782791064099
H          -2.39770406973911   -0.80295168364781    2.69625728542829
O           1.52237927173269    1.54305111860909    1.05135001240893
H           0.99977399866737    1.26778836498918    1.83846715189500
H           0.86667161363516    1.96127118676480    0.48081672870960
O          -1.33146650977594    0.02545183710340   -2.07299154948797
H          -1.71273594580618    0.75396863543491   -2.56662788170741
H          -1.32034759375482    0.31714083740416   -1.13030346085615
O           1.17512908537049   -0.64052925299795   -2.40357269065459
H           0.21882673092426   -0.36725537119701   -2.34327720660826
H           1.17867093897666   -1.50773129890134   -2.81378610466329
O           1.78842310671557   -0.77750834082132    0.05617786887123
H           1.61994392015957   -0.71516850229083   -0.96322321818253
H           1.86018232830880    0.18378489831005    0.42204779238041
H           0.85794313844307   -1.10683041039792    0.47430822816963
