    19
        -40.91966035
S          -1.37201308659687   -0.17034807544798   -1.01041197435371
O          -0.66265689150600    0.88946781767334   -1.71009726156077
O          -0.54247892128292   -1.31118944954632   -0.71185097435188
O          -2.03224260734139    0.35274734232230    0.19581540078641
O          -2.52878417493503   -0.65843310646768   -1.96023208423097
H          -3.01761188538071    0.14075405536092   -2.13124838455600
O           0.69505666749966   -1.66210265270171    1.69079435156706
H           1.49083032683544   -1.50534569288957    1.12572297591877
H           0.04320216067230   -1.99631838399524    1.05347694747920
O           1.14420707754034    1.73580627368135   -0.10373652010302
H           1.25200646850266    2.68327091974984   -0.20615301589347
H           0.48354657666239    1.45061607774056   -0.79976900419176
O           2.16190251994996   -0.91119039759818   -0.37203352629348
H           1.32941302162701   -1.13879395835213   -0.81796052830132
H           2.21013232148732    0.05162683987839   -0.38625423460153
O          -0.20132232810367    0.66342073499394    1.81920213142681
H           0.42592184677665    1.16738262067094    1.20828706286333
H          -1.07445157860193    0.55066177920717    1.22054781643833
H           0.19534247619174   -0.33203274427084    1.89590080196274
