    19
        -40.91899947
S           0.93028666210735   -0.04732474154636   -0.78235370808770
O           0.49920693128626    1.33365591754021   -0.83960063638850
O           0.79369886267362   -0.55668482211722    0.61519134770131
O           0.21928979753121   -0.90673125962766   -1.70111515501869
O           2.44197492494428   -0.13387715939379   -1.12509008700488
H           2.87598292587699    0.30177759518672   -0.36183699963781
O           3.04147914676943    0.65412958377724    1.31566691749716
H           3.62693427718959    0.07925173561930    1.81420949364751
H           2.15032704799451    0.26074785566836    1.36543062501503
O          -2.19994819168577   -1.53688524029383   -1.07221751420501
H          -2.27530951352733   -2.48846447635582   -1.16826357906349
H          -1.30924450596507   -1.29400643647510   -1.44789218511870
O          -1.70777174499224    1.90727162934828    0.35926532413737
H          -0.81648670708100    1.83122943731641   -0.08186575632522
H          -2.33444684166066    2.09114499355070   -0.34422995959262
O          -1.61576660336683   -0.48001142399180    1.15031722359643
H          -1.77578229372410    0.52901220395888    0.94854380622301
H          -1.98586804778753   -0.97864698803526    0.32708496727586
H          -0.55855612658065   -0.56558840412964    1.02875588536080
