    19
        -40.92343666
S          -0.12251064992491    0.93860964269217    1.39641156622229
O          -0.08903998861992    1.99930188098983    0.41221176699558
O          -1.45136069616807    0.33413610615523    1.50267028260797
O           0.90762650937023   -0.06326763989707    1.17235403510831
O           0.18388023821712    1.58035383740987    2.80213785607880
H          -0.52606149421312    2.20645074238112    2.90500902624550
O          -0.58675752972247    0.77945431083714   -1.84789210877962
H          -0.49014475180726    1.42446961964040   -1.10721610477883
H           0.31298869488267    0.40365243346894   -1.94751024576594
O           0.29422518628285   -2.34628388671879   -0.06599790698964
H           0.93035218734052   -2.25802000222949   -0.78435966530387
H           0.57502888301816   -1.68943575683464    0.60467986771732
O           1.85637817951967   -0.19546462797501   -1.30359545060300
H           2.61780645150826    0.36133007785250   -1.47176824345327
H           1.62974750072376   -0.07197921274152   -0.35537232007206
O          -1.79695547879427   -0.98625202091234   -0.57236228448366
H          -1.05817694438250   -1.68745782964925   -0.43602984719040
H          -1.80517252701705   -0.46847400925038    0.33619378316281
H          -1.38185374950090   -0.26112365521631   -1.23956401666501
