    19
        -40.91892667
S           1.17644820271723    0.20488229450528   -0.79421688685881
O           1.28799610785818   -0.28327529463891    0.55793680843941
O           1.17544135787251   -0.82464860695742   -1.81097603614101
O           0.01396513854305    1.10147099148139   -0.93781636934101
O           2.44244931585130    1.11547556762388   -1.05657662511288
H           2.48326786964600    1.20087920931730   -2.00460579964349
O           0.40435085777669    1.99217186355323    1.71320096218068
H           0.05095156780160    2.40997465077443    0.92244030866949
H           1.01154899162370    1.30987026796885    1.38105864955542
O          -0.88007579582356   -0.28865745138535    2.24981926660664
H          -0.60131992179359    0.64931212742814    2.35328460841716
H          -0.05986558522907   -0.73532218075079    1.98647819744364
O          -0.89843153476851   -2.25545186747311   -1.17575839567054
H          -1.26450583103786   -2.61683878081084   -1.98597384998253
H          -0.04145365324226   -1.82381541134244   -1.42508564348327
O          -1.88879712077515   -0.21037982779795   -0.03750974234231
H          -1.59012512285056   -0.27442942412653    0.98403082803906
H          -1.17386153068525    0.43813796338088   -0.45647528456453
H          -1.64798331349143   -1.10935610075067   -0.46325502621334
