    19
        -40.91793115
S          -0.43549455153895   -1.47578839849102   -0.84711826990980
O          -1.44531686055032   -0.83600298343920    0.01134363954398
O          -0.70952316979153   -1.26507920377604   -2.25005763340471
O           0.90396389091190   -1.09294247267827   -0.45067643736544
O          -0.55854535147752   -3.02734970010786   -0.56811733266868
H          -1.37308044540497   -3.28201267026608   -0.99313496372644
O           1.30057368959854   -0.43804432143349    2.04646539427169
H           2.24105701177679   -0.57095779138367    2.17922961249728
H           1.10831592056494   -0.77202770756853    1.13793819431814
O           0.30199702159044    1.97326317931761    1.89071220451866
H           0.73025281210107    1.07933382436177    1.99247743964309
H          -0.24568105961376    2.09577684911634    2.66875478054517
O           0.45966865119306    1.07556054277783   -2.11017760101602
H           1.24020756780412    0.71116863359341   -1.67634310769969
H          -0.01762035951117    0.27768445385338   -2.43252714375895
O          -1.11129413184218    1.59331086011615   -0.18372320892332
H          -1.36714766549178    0.55951651223168   -0.06199216503167
H          -0.54038255418388    1.83002633659327    0.64676682282371
H          -0.48195042612519    1.56456405718323   -0.99982023465366
