    19
        -40.91965982
S          -1.56469228112589    0.28793064366739   -0.63319726723174
O          -1.62602362782108    1.07171390218225    0.59060523640408
O          -0.76511185383944    0.98016325024170   -1.65578622542947
O          -1.10699627039419   -1.06291638646769   -0.42124853496543
O          -3.02769124187175    0.21033038859940   -1.20921964358862
H          -3.25770341673525    1.12613187270752   -1.33260418848973
O           1.48298869691075   -1.81424946416294   -0.76149740110117
H           0.55574813587064   -1.90405858152574   -1.03766025008208
H           1.42741409619905   -1.91851324325696    0.21950907429514
O           0.77813786829102    1.27786225678860    1.44837420106672
H          -0.18993296900535    1.22639785366172    1.19767878058194
H           0.90868098131448    2.14206754206945    1.84326019155246
O           0.58159806832657   -1.55186044070020    1.70703149988997
H           0.76123228834577   -0.65417821623855    2.00952858037031
H          -0.24905857354965   -1.49889444717848    1.20672388411383
O           1.57324012788980    0.67285129744310   -0.93019051119954
H           1.44668769042447    0.95629527665300    0.03137075110630
H           1.65549414460877   -0.39938717584439   -0.91506087231234
H           0.61598811618347    0.85231367131968   -1.35761729488745
