    19
        -40.91892630
S          -0.67063550236567   -1.20941653952759    0.38015392334979
O           0.13086205685544   -0.45985974433405    1.36552511627492
O          -2.07681298203183   -0.88564086084162    0.48978993834677
O          -0.12154735419075   -1.06856854717123   -0.94570146819272
O          -0.51321175323279   -2.73110386126524    0.78105410966047
H          -1.11615575611651   -2.84932915831170    1.50916510965807
O           2.45545832621245   -1.01239980028826   -0.14051511442796
H           2.29632350177595   -0.87605787615914    0.79806290619663
H           1.61137483790430   -1.34634180580456   -0.48776314365623
O           1.52963492951241    1.03778496011502   -1.58157581976492
H           0.84706416859290    0.42370124800063   -1.89552334544878
H           2.18774116115553    0.44271599331182   -1.15585089800911
O          -2.15678801626705    1.59464872717685   -0.27944174575788
H          -2.22594839943517    0.62803445670762   -0.06994074696260
H          -2.87151106604315    2.02555114312361    0.19445510939037
O           0.27197956209700    1.83271020007720    0.42873973178273
H           0.27291261307906    0.91138547374632    0.93631683341842
H           0.84915519010036    1.62959183626968   -0.44449902460163
H          -0.69989550760441    1.91259413517888    0.11754853874555
