    19
        -40.92136365
S          -0.11485391815511    0.33864859589181   -1.33983029282451
O           1.19365160862993    0.31847954905098   -0.66210831570194
O          -0.21316285285412   -0.66657626079522   -2.36870917005644
O          -1.19302094833071    0.31290859044239   -0.37735443315256
O          -0.18300112154155    1.75235487668511   -2.05942043297475
H           0.19473406843088    1.59484473441003   -2.92012950276534
O           0.78717360803574    2.21651420540999    1.19207214117489
H           1.07861897225595    1.62180364401663    0.47539045527584
H           0.26135308934147    2.89953984669225    0.77246011739533
O          -0.70570401899398   -2.49898490470029   -0.53983331663880
H          -1.60741564938723   -2.26794709880163   -0.29974830190304
H          -0.50684550817211   -1.96429876230479   -1.34171742391018
O          -0.60831181655526    0.16918751799370    2.17288301244752
H          -1.10604033690369    0.25136912942737    1.32742774600236
H          -0.06848077464170    0.99028088436870    2.18229343367320
O           0.93764651558288   -1.44515499663721    1.10361470242456
H           1.25154502788248   -0.76271729312638    0.40317127433715
H           0.29008600012896   -0.82088913361846    1.72740406152357
H           0.31202806525768   -2.03936313443736    0.55213425566815
