    19
        -40.91941573
S           0.09154792110298    0.96360084022451   -1.29626083337396
O           1.41326487952175    1.17611097080586   -0.69394249422128
O          -0.04320390574116   -0.39732259443880   -1.78321627369421
O          -0.98161863461494    1.35768560952895   -0.41139655477174
O           0.02676016773193    1.91891982081715   -2.54645237242374
H           0.74166900029069    1.60616886253291   -3.09201876997083
O          -1.86076012027246   -1.37537868117071    0.08559735866441
H          -2.24225513088318   -0.66970337452218    0.61168603089202
H          -1.50480703031404   -0.95148416882204   -0.71025493654857
O           0.68066713180508   -2.21382010523753    0.03166659769463
H          -0.25204538797768   -2.29539129350406    0.31111754051657
H           0.60487791096204   -1.73566817921552   -0.82121558538534
O          -0.57920635777693    0.84646580492482    2.10002669572247
H          -0.82145906377602    1.09254513967655    1.16976530410324
H          -0.51942661760308    1.66835115620508    2.59039980879174
O           1.57298125025138   -0.27047009215065    1.31059506529190
H           1.64907079693309    0.37162842883077    0.48077694542189
H           0.75867651282709    0.09954520178801    1.80239955115481
H           1.26526667752820   -1.19178334628959    0.86072692214423
