    19
        -40.92343658
S           0.31625832925748   -1.32225770555525   -0.99875514115053
O           1.71760367807614   -0.99576102823959   -0.72991680548350
O          -0.29838727863358   -2.01767650030775    0.11178554264113
O          -0.43966317007241   -0.15017228728372   -1.41065804818240
O           0.32072236023271   -2.30127768958543   -2.23302327637566
H           0.84408147234804   -3.03170863743822   -1.91830135427422
O          -2.05903964900166    0.87099806473593    0.42869105797644
H          -2.95035206999489    0.51945072072960    0.41844493073334
H          -1.58226388050546    0.43299925324899   -0.31067717672237
O           0.31054906013437    2.27215047261085   -0.57817154044160
H          -0.52158330411976    2.50688701347308   -0.15283056940723
H           0.09992397048054    1.49703171157624   -1.13927833552766
O          -0.25285074204676   -0.26993691536692    2.05765072300605
H          -0.27009634447435   -1.08388313739960    1.49967579105359
H          -1.00938015732833    0.25632280859004    1.72408262821513
O           1.70958353059993    0.81454186912196    0.97018085998923
H           1.87384985594914    0.05288246464611    0.27240393109719
H           1.25813155495512    1.54999627551736    0.41222183063085
H           0.93291277413536    0.39941324692947    1.57647493221230
