    19
        -40.92120578
S           0.91654835580429   -0.18303599807828   -1.01446227757647
O          -0.50494336036044   -0.28662217948040   -1.34650807126871
O           1.56724341290875    0.93374950451948   -1.64225758923620
O           1.12961237005326   -0.30009387253085    0.41888767790115
O           1.58110477080701   -1.50248633794822   -1.62157512504932
H           1.82719629572109   -1.25433829762524   -2.50769914378945
O          -0.05099355433646    2.64462521865048   -0.38741442835790
H           0.33121727883338    3.52172926703326   -0.46063607079899
H           0.52137303032908    2.05210690882500   -0.91225713345408
O          -0.23735215563452   -2.43058977275771    1.09057915875586
H           0.43811537074081   -1.73292070870006    0.92556295592832
H          -0.10623808976571   -3.09518168508347    0.41172042546175
O          -1.94759158029512   -0.57600078911396    0.64170021851230
H          -1.47639801872153   -1.41552538554647    0.96064588574808
H          -1.46932388712218   -0.42031384915365   -0.28371055032063
O          -0.61746203351338    1.20330124342658    1.77801631696705
H          -1.53004154952723    0.21556119950076    1.22432584440798
H           0.20854529914385    0.70854331282387    1.61912962422009
H          -0.58061195495034    1.91749224102318    1.10595229191601
