    19
        -40.91908983
S           0.04321587899827    1.20300253216638    0.06950532986032
O          -0.00075341287110    0.98109040208857   -1.36315705862756
O          -0.83161862128270    0.20185997435208    0.74984172560748
O           1.37884951004406    1.16299235828359    0.61237666097212
O          -0.56745810036569    2.59459856928189    0.38928909419186
H          -1.51890317047216    2.48581813558015    0.18183781110324
O           0.62654901701672   -1.42038036474914   -2.00565912711646
H           0.45517395610319   -0.44559502139848   -1.85511948076183
H          -0.00018200625450   -1.69500668155610   -2.67836282030058
O           2.46326218405596   -1.09549329188909    1.26912819112190
H           3.21010822319514   -1.19239428862685    0.67367241309504
H           2.13816309119693   -0.16482941253711    1.14830175596675
O          -2.99983549865273    1.59426531759247    0.17083113761005
H          -2.40169716303572    0.85333552435450    0.38576203781714
H          -3.55547734687514    1.73299852464042    0.94138105730040
O           0.26036239150153   -1.98979116978772    0.42473562751524
H           1.18836051642130   -1.78500257363727    0.84110024514929
H          -0.29042209254651   -1.10344312409699    0.64304851004910
H           0.40230263382850   -1.91802540007550   -0.59851311052193
