    19
        -40.91966007
S           0.24058928233501    0.91517127159066   -1.42705385417870
O           1.49874487623518    0.15256183225486   -1.42129642276075
O          -0.87104868867119    0.07184521168727   -1.83796078276979
O           0.01429048923480    1.58181753062678   -0.16873325900100
O           0.41431369872788    2.02495651256131   -2.52990802666834
H           0.56471848067898    1.51759593404784   -3.32159588873507
O          -1.65277707772478    0.37490317467975    1.66570378725062
H          -1.37411435950228    0.97323936338464    0.95310891608548
H          -1.80628933984100   -0.47859833275361    1.24445015131069
O           0.92084543543123    0.60898713084845    2.20673265881175
H          -0.04907792304352    0.48326234447809    2.34959471196080
H           0.94817457508174    1.32537394299290    1.55141429458125
O          -1.06297384405829   -1.79013449857543   -0.08968567554530
H          -1.31839596157430   -2.61059440033646   -0.51567720395482
H          -1.07373084387796   -1.08742418102548   -0.80281575155518
O           1.36306225104962   -1.25078088766260    0.60339840000442
H           1.25861586880209   -0.51020374292615    1.37556019271022
H           0.43596750136406   -1.61864267134348    0.44199363421088
H           1.54908558935020   -0.68333552452637   -0.27722988175690
