    19
        -40.92135410
S          -0.46730885968542    1.14230696341691   -0.95616245861335
O          -0.91907442946999    1.72890272382872    0.30627783909902
O           0.95117255200785    1.33273451687610   -1.16552225428284
O          -0.88416010851832   -0.24570528553756   -1.07826949944648
O          -1.21861061995558    1.92402510191200   -2.10268583586520
H          -0.83936314397624    2.79573573983887   -2.04788265651839
O          -1.62833217074250   -1.42956010623616    1.16744857503751
H          -1.43736488438851   -1.10527296552793    0.25801375474080
H          -2.56327703831113   -1.28050994352695    1.32010657467328
O           1.21408324350102   -1.92793782637813   -0.99002301000241
H           0.39725169766114   -1.40897280300783   -1.12477878625101
H           1.69548188426906   -1.88982630277812   -1.81828485231482
O           2.02413344181727   -0.10511267604568    0.74363032340359
H           1.88646990783172   -0.96046516727626    0.27066493167419
H           1.82706057851405    0.56659897988805    0.04869589885843
O           0.00288909693158    0.28879086149613    2.11617877415553
H           0.95892563811125    0.06892179929390    1.63383377197949
H          -0.39359613922964    1.01149008836237    1.48382037424840
H          -0.60638064630415   -0.50614369859269    1.93493853542230
