    19
        -40.92003352
S           0.24180455648832    0.72037526519232    0.44070479598632
O           1.26563239542662   -0.19979895465250    0.01439824713019
O          -1.09002673295746    0.28061141422722    0.09825065492764
O           0.35146238583577    0.98829323511656    1.94312049264576
O           0.48901794887775    2.11241759708396   -0.14546113559069
H          -0.05102995795238    2.16183054244726   -1.01718911106168
O          -0.87498821345643    1.77732747075198   -2.24379798837079
H          -1.55340355453405    1.26246518004288   -1.79025490503357
H          -0.25971319027205    1.11682421187380   -2.63478846294078
O          -0.52829281620384   -2.28105442698590    0.70602883430203
H          -0.96408254094052   -1.48323778635895    0.35848986869387
H           0.35226994451744   -2.27045713600097    0.31736512366071
O           1.00623370550289   -0.07373856644532   -2.64951281908301
H           1.85285651200598    0.13824678280275   -3.04793815028228
H           1.17964993911685   -0.23447134224552   -1.70187238328139
O          -0.20975013199234   -1.21276145199452    3.08773800346228
H          -1.07230067061601   -1.15743815328894    3.50641793579730
H          -0.32154328867021   -1.77940477279927    2.27977193187128
H           0.18620370982661    0.13397090123247    2.47852906713784
