    19
        -40.92003355
S           0.79308306711214    0.37550582504109   -0.03013428758722
O           0.19295033714702   -0.53469108623444   -0.97658187922805
O          -0.04674778863619    0.63476508306408    1.11187584625313
O           2.16405499840778   -0.13712193262220    0.41589256783222
O           1.16130214682074    1.68198154691072   -0.73730391275386
H           0.46514906585522    1.81807868065724   -1.47944680173964
O          -0.78747017342388    1.68851442590924   -2.34300669622145
H          -0.76165429682160    0.73223735523890   -2.46916820050620
H          -1.46440079706819    1.84472231552268   -1.64654765782057
O          -2.12262465971785    1.87888534830184   -0.03841736302140
H          -2.27578965140279    2.72142491677274    0.39411499013423
H          -1.44924971752921    1.41347173511112    0.49435755980156
O          -0.81366418573007   -2.08850574985119    0.97823138037388
H          -0.64002004833592   -1.68496872275581    0.10984310517569
H          -1.07658903093783   -1.35483115338018    1.54319190339714
O           1.74875401243634   -2.41354713855594    1.47216939458220
H           0.75803511676406   -2.43258173556189    1.40593072289292
H           2.07618999476584   -3.10948646751821    0.89709284119256
H           2.07869161029091   -1.03385324604471    0.89790648724152
