    19
        -40.91941572
S          -0.07559089326002    1.33609163762541    0.90608532729597
O          -0.48563996067970    1.86005278372913   -0.40226132190798
O          -1.06593907319904    0.41151526909890    1.42756255314701
O           1.25893197491719    0.78096855235976    0.87796521596585
O          -0.03414523390130    2.57564330704713    1.87642407485376
H          -0.93734848944281    2.87698938697168    1.87782912834004
O          -1.77899153088758   -1.43626747281220   -0.36177505443273
H          -1.11324513590826   -2.04515154666352    0.01334214694343
H          -1.84193423807694   -0.74107195009168    0.32691732708925
O           1.88340358511159   -0.47445648033291   -1.30536228841805
H           1.74551347929091   -0.00891808400934   -0.44000544280894
H           2.58587648169576   -0.00316618368280   -1.75706731252618
O           0.35178223061894   -1.96882225287413    1.16959824017280
H           1.27804205990011   -1.80789341793750    0.97855746866732
H           0.00982849045143   -1.14174809180395    1.54227913244451
O          -0.52986191017322   -0.03279932638399   -1.99906679384675
H          -1.11959084023864   -0.71015285189256   -1.41775857820239
H          -0.57376419085617    0.85060663479593   -1.42899211853829
H           0.44267318465731   -0.32141991315473   -1.88427169423847
