    19
        -40.91793106
S          -1.65439509412000   -0.12430978825245    0.58298528175644
O          -1.85582892365485    0.53292998958698    1.85391660157569
O          -1.35882085486756    0.83753600897283   -0.49120247324187
O          -0.66472541623366   -1.18110182365001    0.62327617579706
O          -3.02262043985727   -0.80714696983974    0.18088695210997
H          -3.67877734436673   -0.13203131992388    0.33134265217489
O           2.23471260278063    0.23472919315006   -1.58812295150926
H           2.25294090503671    0.57859931898134   -2.48351328401724
H           1.65430308417293   -0.57478580091786   -1.61479786978356
O           0.73817967906389    0.59291705794856    2.21477933195409
H          -0.23254514461576    0.70402651862794    2.33231159912620
H           0.83348271332334   -0.34322953214152    2.00255815210688
O           0.57838241514060   -1.78818651659134   -1.59261825714124
H           0.02118183502597   -1.57104364847436   -0.80764101865272
H           0.89720416756572   -2.68086094802654   -1.44681338715739
O           0.88746254225272    1.73650057816911   -0.04709465355189
H           0.97661797768791    1.37217210182196    0.91333057344436
H           1.50348125232113    1.17130619022606   -0.65742290031716
H          -0.11023595665854    1.44197938033351   -0.30616053467830
