    19
        -40.92003350
S           0.39286093858466    0.27601077784813    0.73478466847124
O           0.36417935642443    0.91211868508570   -0.56089384504212
O          -0.29409321570350   -0.99066555435526    0.75567536347960
O           1.83356175549304    0.11424034876782    1.22417874927987
O          -0.19085761319747    1.22413519934131    1.78492266095112
H          -0.90654452085657    1.78375924413992    1.30684772235067
O           0.73922764696181   -1.42466158987608   -1.84522053617105
H           0.53178310900580   -0.49324440480471   -1.65426343366352
H           0.15142754914804   -1.93039999984930   -1.27483532755394
O          -2.81414500777454   -0.22671623521646    0.26000260770121
H          -1.94080267934624   -0.63611236714052    0.41336896618283
H          -3.39589311050666   -0.56456043578815    0.94396489814239
O          -1.91291515916126    2.28680742437439    0.27456439635514
H          -2.46024524538340    1.47353758300742    0.19274474498467
H          -1.32740776956561    2.28327526524978   -0.49238791356331
O           3.00848224427733   -1.31619571898379   -0.52047849252307
H           3.62289336322454   -0.77983245232535   -1.02752408045431
H           2.36524135445623   -0.49368690992583    0.59847051660183
H           2.23324702391529   -1.49780884968077   -1.11392166553279
