    19
        -40.91793068
S          -0.13584579639832   -1.02670723847320   -1.41828095826933
O          -1.21403892180770   -1.06791958569587   -0.41722654447382
O          -0.53081857237495   -0.30509124908538   -2.60613064964942
O           1.10142310364406   -0.55346675996275   -0.83268435208826
O           0.11433752745674   -2.53024944106248   -1.83925442754930
H          -0.64026269579277   -2.75612286282035   -2.37640487090546
O          -0.04662102766311    0.98329810960071    2.56706171029879
H           0.57947724738910    0.25737331577748    2.29513037536646
H          -0.56203739748054    0.63063623090790    3.29529818861017
O           1.48271173099027   -0.96048516939866    1.71916364794167
H           2.43484994020418   -0.91766279539375    1.82588671414629
H           1.31926550717829   -0.90704061564620    0.74739267581999
O           0.07826326192301    1.94997720444795   -1.41883214338305
H           0.94553518120238    1.62679699879520   -1.14748910245862
H          -0.22177646638862    1.28059861919238   -2.07477088415783
O          -1.45466105512587    1.21462899269708    0.46739642491419
H          -1.46047135237595    0.20022729914543    0.12036180384549
H          -0.90509907037644    1.19687410723872    1.34457330798245
H          -0.88423114422141    1.68433482972835   -0.25119092598174
