    19
        -40.91898053
S          -0.14338469098927   -0.19508447677064   -1.61457988019227
O           1.07933516672548   -0.61203971382788   -0.90561606213108
O          -0.97386141486048   -1.31271988079639   -1.97842899287957
O          -0.83171403851902    0.83845928176160   -0.85781686927517
O           0.35269348985080    0.48845059343299   -2.95352937282010
H           0.41973175904368   -0.22001037356935   -3.58820616217847
O           1.29735695236012    1.94404275833616    0.25407635467487
H           1.95402789600911    1.38108048411527   -0.16727549910277
H           0.45908113345505    1.72749562220581   -0.20436789731102
O          -2.05563350486476   -1.11424087996408    0.45394001262827
H          -1.93356265981439   -0.19303378152308    0.15707824898611
H          -2.01500791969284   -1.60641932481897   -0.38352566869014
O           0.67575950685823    0.80176586988949    2.51652014637421
H           0.99957089724946    1.33533474618178    1.73562484515921
H          -0.13246594331138    1.22292124055784    2.81634952447380
O           0.31223827146285   -1.39088645236637    1.31859190332870
H           0.48836850493172   -0.55032715168733    1.91231897031709
H          -0.69972529149531   -1.39417726845349    1.10345528149915
H           0.74719188560321   -1.15061130269912    0.38539110713920
