    19
        -40.92003357
S           0.83794292366485   -0.22884755849421   -0.12714293081621
O           0.16424123518983   -0.71580202291098    1.05002874002278
O           0.00866554186092    0.63255365179020   -0.93622912230158
O           2.14047372930606    0.47852794066521    0.25277369995143
O           1.34985370646441   -1.39424855776775   -0.97705013468545
H           0.61947375887846   -1.59229345877394   -1.67075228475906
O          -1.05358637633472    1.83498287494897    1.22608199436905
H          -0.89830295012533    1.53506553151024    0.31338692668369
H          -1.13585370495902    1.02589060042208    1.74108962843499
O          -0.71274222131733   -1.61677515982772   -2.41661694147304
H          -1.28577204003769   -1.94055561945341   -1.68558809446276
H          -0.85812008197007   -0.66374353405349   -2.45699315732121
O          -1.77493001644445   -2.21009137011232   -0.03955666672447
H          -1.14108750168338   -1.67687769813093    0.47791114418344
H          -1.74529180014393   -3.09662517834241    0.32596781766920
O           1.45413120201412    2.56191060733967    1.54071132641948
H           1.95309856448707    1.30776542378228    0.81932568098542
H           1.60552689987748    3.34550185057165    1.00656287011032
H           0.47227915126532    2.41366166683596    1.55608951373038
