    19
        -40.91833113
S          -0.63309581697574    0.89439622113456    1.33431329536981
O          -0.98718576751344    2.19816624762746    0.83125455146300
O          -1.54413193467256   -0.15011474907036    0.84071653192782
O           0.75277873460886    0.52385880249250    1.12719458966185
O          -0.84410892970830    0.93699797200928    2.90412216430265
H          -1.66028259901348    1.41786083824339    3.00255747983112
O          -0.01481786089148   -0.41097757103221   -2.49070368522177
H          -0.74696724763820   -0.23706593196381   -3.08519039844452
H           0.21372156788036    0.46531890281787   -2.07306965199612
O           1.60307575505205   -1.89947204722936    0.78944784822881
H           2.43347846594191   -1.82510621883222    0.31472405865313
H           1.36068952992540   -0.98182061846677    1.07601308660238
O           0.52385843180911    1.85654724918913   -1.29610755356000
H          -0.13683164792057    2.10947929700347   -0.61672350191383
H           1.33356480265021    1.73050014040655   -0.79326856199426
O          -0.56671819118754   -1.93316929396386   -0.53338108894496
H          -1.06238386002199   -1.20948172536354    0.09365994856705
H          -0.34374291747704   -1.39411306868476   -1.38223182379825
H           0.31909950523375   -2.09180443628641   -0.04332728891987
