    19
        -40.91941503
S          -1.33998415294476    0.65459173090963   -0.62294918659903
O          -0.54973601619600    0.42013106522101   -1.83779042402021
O          -1.72676279038133   -0.60127969131962   -0.00627679613021
O          -0.67892323638757    1.55615377892160    0.29362514755450
O          -2.65882739404232    1.37232835547898   -1.09772797756440
H          -3.04582223241475    0.73744248444232   -1.69246641743686
O           1.89946555455450    1.29769335035706    0.42386651536444
H           2.31921393947179    2.09270895802092    0.09008810984480
H           0.92438444442142    1.48104954477323    0.43818581871831
O           0.33242477206706   -2.27469570766640    0.28624989694895
H          -0.55917347701373   -1.93493532745311    0.06051785559185
H           0.45942540238672   -1.94536909982429    1.19734292314466
O          -0.11094815567488   -0.51740621974437    2.25673005984053
H           0.27800879378079    0.35109145053134    2.37837805084657
H          -0.87003375484178   -0.38822270884866    1.66760899797499
O           1.57003009612495   -0.66963638229515   -1.16393570976144
H           1.88893881307486    0.05499319330611   -0.51929313604413
H           1.15675600028500   -1.45235015332276   -0.56300212931760
H           0.71156339372675   -0.23428861149013   -1.58915159896057
