    19
        -40.92003353
S          -0.51687149799290   -0.69968460093353   -0.11870743819110
O          -0.23974256467097   -0.26973926818092    1.22858873989871
O           0.15906901992524    0.09666543059896   -1.11527801404697
O          -0.17632762835329   -2.18144072214417   -0.29076688879798
O          -2.02321801690917   -0.69018178518324   -0.38940724959628
H          -2.23905451036740    0.22358948272192   -0.80468394164332
O           2.40626568424977    0.24605480557661    0.36081786722018
H           1.94927555806109    0.37066129933575    1.19884129527352
H           1.72964943807830    0.41026914601718   -0.31910040926488
O          -1.33647347288868    2.17501859767812    1.23385973718791
H          -0.87414715550675    1.32286649473823    1.35228402190185
H          -1.95632791326640    2.25077108758575    1.96220739951101
O          -2.13405767959280    1.67556450071403   -1.26489215336577
H          -1.28826975489794    1.60705466832951   -1.72425122175094
H          -1.93034843206165    2.09181233612464   -0.39715077203277
O           2.34918062700504   -2.35241219130178   -0.03988814416425
H           2.54443641146447   -1.40274272260129    0.17496377584939
H           0.82310705588748   -2.34411978971925   -0.15494448276539
H           2.75385480177155   -2.53000677939305   -0.89249212113465
