    19
        -40.91984728
S          -0.84452054592684   -0.51918777175358    0.44859475922583
O          -0.96882623768728   -0.24999973994663   -0.98821526547504
O           0.46265151236382   -1.15010665681887    0.72105295070456
O          -1.03893577830611    0.66200760754608    1.24976663174407
O          -1.93567492220625   -1.55369392464696    0.83195342559048
H          -1.89938544112723   -2.22528024746770    0.11643848388829
O           1.01639495224212    1.33670421906292   -1.57326236967558
H           1.32955764990070    1.06435060654833   -2.43845520475961
H           0.19051776664943    0.81634695054731   -1.40239909027089
O           0.94319463243986    2.08854597216593    2.16066329303994
H           0.11866131403727    1.57267885251685    1.98157612489344
H           0.76583270930271    2.98228435847552    1.85889288646168
O          -1.70759469385725   -2.71539486022602   -1.51812888930169
H          -2.52387245635837   -2.73811613253066   -2.02290064874301
H          -1.34880702234488   -1.80949619759358   -1.60405186303068
O           2.19530929294133    0.56316974964086    0.56009968756110
H           1.49722471558538   -0.29234244137106    0.67898974425433
H           1.89028774079793    0.94468201736023   -0.33171782747173
H           1.85798481137888    1.22284763839999    1.27110319144995
