    19
        -40.92315432
S          -1.50306389435390   -0.72090465765888    0.32210880143964
O          -0.59480850208050   -1.16256787845780   -0.73797548292997
O          -0.90308203060831   -0.97096536947664    1.63539591465133
O          -1.93432487599348    0.63762947049461    0.13111061152893
O          -2.77357776388544   -1.64909981925255    0.25998525435782
H          -2.48077727913007   -2.43227238109519    0.71546808178549
O           2.02288672046047   -1.02948840684312   -0.32191115342527
H           2.25125038588974   -0.44386139304695   -1.05162071756302
H           1.10105943682567   -1.31601240807893   -0.50486041359200
O           0.54476250599250    0.88472877629771   -1.99040786193736
H           0.02857138560966    1.23759833507373   -2.71651192651903
H           0.03078168680590    0.12603627270081   -1.63475988989395
O           1.23471165486150    0.29674741954023    1.69811560949395
H           1.73112045199775   -0.23552391973801    0.97094510488764
H           0.35640705194728   -0.25349538816396    1.83011774822028
O           0.21089387423815    2.13218893014623    0.35755444756001
H           0.50700543105527    1.91923451191504   -0.55341159330586
H          -0.71437884254300    1.79754677346757    0.37760664048739
H           0.88456258282779    1.18248113224763    1.21305080471683
