    19
        -40.92079092
S          -0.56010367325514   -1.13392509863123    0.77948321529100
O           0.84206634973278   -0.76357631199597    0.64632274915664
O          -1.19773922461498   -0.62129929993605    1.96473450295423
O          -1.30558870728766   -0.81880697286831   -0.44071805781235
O          -0.55970743339848   -2.71245405973250    0.89413990109295
H          -1.46077256697985   -2.91625428429333    1.12445863129594
O           1.87860200889399   -1.10628687417530   -1.73868342055408
H           1.56792546715591   -1.16616291040832   -0.80444533680540
H           2.80177003430000   -0.84774599545718   -1.70376841275328
O          -1.37797919375376    1.96082131603489    1.42882007219142
H          -1.41422588281679    1.00385959359253    1.64490701744746
H          -1.49343037156588    2.42624916599082    2.25941224712661
O           0.81934263404770    1.81758017219772   -0.02057450453101
H           0.01614107100060    2.10559513904528    0.47340766923118
H           1.05689702284097    0.96504610874952    0.39719405496917
O          -0.01950434564914    0.58758849258093   -2.01980688533659
H           0.75810985816678   -0.05032097840445   -2.15656533633890
H          -0.68406708988686    0.00083667919260   -1.44907657789584
H           0.33226403306642    1.26925611852058   -1.27924151871289
