    19
        -40.91833232
S           1.27647263170023   -0.09794779748607    1.15720412816149
O           1.09988312932006   -1.35467212986290    1.84133189500388
O           1.73658094043604   -0.28685307272307   -0.22737894634406
O           0.12825592819042    0.78520706745854    1.21384736158402
O           2.45194523007885    0.66473921284365    1.89615380593346
H           3.09346660425957   -0.02167973230071    2.05208326707061
O          -0.53408780553004    2.46989079496321   -0.63956415753293
H          -0.23953901386241    1.97024897938258    0.16457919636876
H          -1.47469177227685    2.62618933380572   -0.53308530226337
O          -1.40808392913214   -1.51583813190226    1.06329684729920
H          -1.65820767016091   -0.67576836738009    1.45843905003981
H          -0.48730111721065   -1.65371156456054    1.37204295994778
O          -1.57806736460269   -1.23310442314946   -1.53328090998786
H          -1.42583018608933   -2.10127765122888   -1.91106335436245
H          -1.55904228834281   -1.35704363057869   -0.54356099796078
O           0.23751136489274    0.47680022584813   -2.01465821592648
H           0.96496537985583    0.14992034104338   -1.28988959211138
H          -0.52685524467720   -0.20551464219760   -1.90798970961349
H          -0.09737482683921    1.36041517805462   -1.61850730531427
