    19
        -40.91892667
S           0.61289063730709    0.69385535202296    1.09499963747808
O           1.41824621142857   -0.17563413317390    0.21692155621467
O           0.71591974552416    2.08172343404616    0.69829724354021
O          -0.73642468956887    0.19970234674570    1.21436685578662
O           1.27272107321131    0.57015533595208    2.52678219095707
H           2.04082423095011    1.13229241010847    2.48537862789749
O          -0.04945093059914   -2.41090729855584    1.12166284538631
H           0.85422453210654   -2.29516563730623    0.81375253157398
H          -0.30130071678475   -1.54274409977663    1.47843367556292
O          -1.79878675979542   -1.48903415053599   -0.67579848108192
H          -1.30022666765031   -2.14782726897963   -0.14136774968226
H          -1.96700105997179   -0.77294797818030   -0.04262828099512
O          -0.47652558556480    2.11242959503198   -1.60954769823715
H          -0.05881561211357    2.78961945975464   -2.14620260676926
H          -0.09663114131475    2.20484312483343   -0.69836866397619
O           0.08370161451491   -0.35257339437435   -1.86678452819858
H          -0.76111093060736   -0.88219184187988   -1.48821965006455
H          -0.19903625535163    0.62915807003388   -1.93127926507206
H           0.74678229424355   -0.34475332576372   -1.05039824032199
