    19
        -40.92079121
S          -1.24530870436870    0.15530036689520   -0.79524222238459
O          -1.43061856612005    0.31954431486188    0.64788476829099
O          -1.20454849227411    1.41400227582852   -1.49394657067712
O          -0.12108649927569   -0.72493549390740   -1.08216986346397
O          -2.52105811993656   -0.62648445498219   -1.31105608077120
H          -3.21959831821590    0.01560428742289   -1.23169863015584
O           0.20593406803700   -2.71502294629074    0.59487999316529
H          -0.02303245174629   -2.10647796478781   -0.14685931504530
H           0.95557654286429   -3.23576922262226    0.29968520655579
O           1.95255308040837    0.35409721207954    0.19894618564328
H           1.40303643563413   -0.08172578052323   -0.48368375948925
H           1.71361443275935    1.30740257921499    0.11951495825158
O           0.77774239866394    2.66576206318379   -0.27405171608951
H          -0.01755919526680    2.28424534459222   -0.70512191859661
H           1.08757998314426    3.36303869131334   -0.85513842963283
O           0.46304612537665   -0.57152275602245    1.96981264372832
H           1.22198963547858   -0.13929209867297    1.35733933889726
H          -0.40179803339224   -0.14571788093451    1.54366324983645
H           0.40353567822820   -1.53204851667082    1.64724216194413
