    19
        -40.92158919
S          -0.04414821076917   -1.36189994210340   -0.56849263952899
O           0.04897882434787   -1.52312011703945   -1.99394309054190
O           1.20424844440067   -0.85768353552695    0.01938571465727
O          -1.18034075837980   -0.57839637490233   -0.10775392147088
O          -0.26610885321896   -2.80451912831996    0.04866279240836
H           0.26606402857025   -3.37651783285868   -0.49591337908115
O          -0.52822189731684    1.98494677522804   -0.46068974028911
H          -1.07443309397471    1.17437427491473   -0.44984763483448
H           0.06823796718095    1.84755115338582   -1.23451392726290
O           1.08729920963140    0.91452923370679   -2.25558462303509
H           0.68101320891101    0.03064030561932   -2.34883719181657
H           1.97031349697430    0.75317581609701   -1.91509056522545
O          -1.21223159630132   -0.04180599081560    2.45477627081895
H          -1.32426207703083   -0.41563726974650    1.54904081621781
H          -2.02918740810697    0.41408242045538    2.66709764652576
O           0.82511137697969    1.13051831573393    1.44727876630772
H           0.09573355894878    0.76674209197005    2.05300011558329
H           1.11613473552788    0.27414647409366    0.90418224115297
H           0.29579907365990    1.66887333008359    0.68724234939898
