    19
        -40.91908946
S          -0.64482235651690   -0.70478572593287   -0.74016113596723
O          -0.77128526045439   -0.42728645768815    0.72189727084194
O          -0.59787052424071    0.55232349274992   -1.46200751815547
O           0.49037722033176   -1.55526395396466   -1.00037378005735
O          -1.93031791771424   -1.47711286526103   -1.14354408269371
H          -2.65504135027038   -0.93836028464585   -0.76361318580356
O          -3.36099394411426    0.03269061184612    0.48136400857477
H          -3.87695927074513   -0.45596735491195    1.12689544515240
H          -2.44148960817496    0.04650138647521    0.80875411002247
O           1.24998468308682    2.11611180132046   -0.61762254980132
H           0.56421971154909    1.54153686944234   -1.06695260080756
H           0.86174915257164    2.99189795438685   -0.56313065551344
O           2.69204975457706   -1.23457825634075    0.32579485012011
H           1.89085054697856   -1.52336329225751   -0.18506334235610
H           3.33643639382875   -0.95779646385713   -0.32988507017327
O           1.36048984687284    0.61548763689746    1.40734390835596
H           2.02152847843673   -0.12210695575158    1.09828593733941
H           1.39932931685904    1.33913456655139    0.66758635922277
H           0.41176513710079    0.16093728093288    1.23443204170430
