    19
        -40.92136396
S          -0.94103142542247    0.57688277373616   -0.83916752179909
O          -0.55931424946651    1.48255748592225   -1.89408848192195
O          -0.44332362711425   -0.79094780587131   -1.06881237896292
O          -0.59834344852054    1.03251260115094    0.48930889800971
O          -2.52325801680637    0.45119065361231   -0.88154496801803
H          -2.74542482841168    0.60049065857159   -1.79621281988906
O           0.80059755330777   -0.54460974867584    2.04351775646595
H           0.15426167944409   -1.28452088964814    2.01782161795443
H           0.26906122924416    0.21383550473433    1.70880207184405
O           1.84193220384276    1.71488787317913   -0.83387667054149
H           1.64267166802223    2.26031110914017   -0.06774201140114
H           1.02142664531024    1.72299318210400   -1.37726259454164
O          -1.27808894816608   -1.97633200722381    1.19035505065450
H          -2.13686478344429   -1.60147403707883    1.39340395491011
H          -1.06058834738515   -1.67816446192108    0.28696492249522
O           1.89828596017174   -0.74804201983730   -0.16777068023803
H           2.08077172107384    0.22496267845078   -0.42894895497674
H           1.56585842843317   -0.72370040713708    0.87604792136731
H           1.01137059592299   -0.93283313321249   -0.65079511139512
