    19
        -40.92025498
S          -0.06331721881557   -0.44372951369876   -0.79242719177870
O          -0.89766075081003    0.60804867581166   -0.23212558693938
O           1.32361507221367   -0.00049789805849   -0.92043423733241
O          -0.17654762916178   -1.66775271170943    0.00691795226731
O          -0.58786757316425   -0.81142353642392   -2.20917802011341
H          -0.15336157429715   -0.18026814340645   -2.82694349000034
O           1.37201967736286    0.95502464606713    1.52332094177521
H           0.74975168998851    1.68146196525203    1.41841270158992
H           1.53574201953317    0.62666028333271    0.60845131620172
O           1.06768771673954    0.85139079860368   -3.38897378640475
H           1.41171759794240    0.73759539336584   -2.48017239362209
H           1.71028790083040    0.44966439124681   -3.97849421757250
O          -2.18551732007483    0.22428217615381    1.98491818916117
H          -2.96736495870953   -0.29944238189882    1.79944550468897
H          -1.80915725164403    0.48336310770916    1.10256967128214
O          -0.00507397458746   -1.00157381642795    2.36683130053805
H          -0.93029073245775   -0.55277264798310    2.42552532477823
H          -0.04511785260360   -1.43965540906144    1.38533552074347
H           0.65045515171222   -0.22037537887681    2.20702050073467
