    19
        -40.92071446
S           1.33580945297116    0.63011144616001    0.12020519743103
O           2.33648614319630    0.23623560769109   -0.84454160439996
O           0.21712579932330    1.34543956761152   -0.44905936769847
O           0.86373867650675   -0.52055738211147    0.91583931801117
O           2.04715948985257    1.59655456215802    1.14799585564719
H           2.94839518709647    1.28717858413166    1.16644688082913
O           0.53003014135687   -0.52941411093543   -2.57819809011968
H           0.12620108290651    0.31779748904818   -2.78819928312911
H           1.34115822700375   -0.30516354424135   -2.06372389116484
O          -1.30868022473896    0.00010612305845    2.40088023838250
H          -0.43122309521394   -0.13059064157260    1.98943373480357
H          -1.39297533896641   -0.66639196090923    3.08429954393542
O          -2.20069875819059    0.38528115026496   -0.07990380275172
H          -1.44720932099694    0.99060498746833   -0.26988878760343
H          -2.20157924206807    0.31928793298281    0.89840884962866
O          -0.79090300585793   -1.56185120721200   -0.66903475337399
H          -0.33663298139997   -1.27841179983272   -1.54877399382722
H          -0.08466696311290   -1.32158037386176    0.03604781100530
H          -1.55153528965214   -0.79463643998616   -0.46823387563940
