    19
        -40.92135327
S           0.29704148541824    0.23333347862380    1.51454231007142
O           1.67841855173580    0.20647830981285    1.08683065080589
O          -0.34126767748487    1.51862010619254    1.22735239276719
O          -0.48506170475370   -0.87823760777733    0.99690647071195
O           0.28810583856575    0.07594676081102    3.08470854845253
H           0.87168287900440    0.77188444126319    3.37072900275103
O           1.48804092416814    0.36894373785479   -1.52057671174025
H           1.24882286442886   -0.58232193657552   -1.63089698633025
H           1.77636338880509    0.41679781477721   -0.57830801284381
O          -2.30484693509782   -0.26515299868503   -0.82292520649455
H          -3.13050993501567   -0.03337096024118   -0.39371650089889
H          -1.71645993379438   -0.62802926673286   -0.12234577746925
O           0.77575861121588   -2.12732480231914   -1.02515664431473
H           1.49745587385606   -2.65576808024101   -0.68004425868697
H           0.27494005030575   -1.80910493737185   -0.24881698672663
O          -0.63150446487352    1.61564525410013   -1.24410088386440
H          -1.36650039949276    0.91314744798604   -1.28953198456621
H          -0.52343928279575    1.74788876560859   -0.21961893357188
H           0.30295986576617    1.11062448286146   -1.50503051802316
