    19
        -40.91833238
S          -1.39779964556879    0.98783637207330   -0.22922717245043
O          -0.54470833006810    1.43733499960295    0.88205664096795
O          -1.15870780648188    1.74679624876114   -1.43143193244135
O          -1.32476998359183   -0.45002463808644   -0.39952013053349
O          -2.88407098611926    1.29953013726132    0.22188721039755
H          -2.95868711164145    2.24012507863504    0.09219110155596
O           2.48876328842457   -0.26949876710851   -0.32456458506247
H           1.84058141316793   -0.16436675811820   -1.07561532931128
H           3.11901060139066    0.44734076586192   -0.41704519652372
O          -0.53587341369811   -2.11813447850572    1.41914417137194
H          -0.22853756062235   -2.89662074725470    0.95006146420462
H          -0.99870756121204   -1.55143938252497    0.75013234204334
O           0.70478344652353    0.06102869124853   -2.21150938098621
H           0.10697917109267    0.82005350146034   -2.04302268501813
H           0.11857421812601   -0.70064762602451   -2.18392194362180
O           1.06852206955133   -0.18045739863029    1.77939243327160
H           0.36396591574769    0.57259982906637    1.46667633072638
H           0.50476972424231   -1.03607296279733    1.77364610427138
H           1.71591255075001   -0.24538287490105    0.98067055711361
