    19
        -40.92120569
S          -0.95017970128928   -0.18446099250954   -0.98358152095820
O          -1.38905646892238    0.35656125440462    0.30333570169973
O          -1.08641270098103    0.74776174389671   -2.06868586964152
O           0.35434910923072   -0.81608297589780   -0.86858208863062
O          -1.94906601306364   -1.39280720488967   -1.28808608257098
H          -2.66734916624650   -0.98775802744250   -1.76488441577267
O           2.04890623058527    0.72191566405659    0.51741924167769
H           1.77374524000178    0.03291234245847   -0.11667391115395
H           1.68592912896381    1.54379119891149    0.12293030039058
O           0.59135093604537    2.45167333778975   -0.88590068882234
H          -0.07157952359710    1.88435006141432   -1.32516259597127
H           0.85500270067234    3.10830061135592   -1.53396834434730
O           0.12166709468250   -2.37754518356087    1.22096108944974
H          -0.74167288022686   -2.79365736626588    1.18727248683699
H           0.26362922484837   -1.96798566045912    0.33640870819944
O           0.26388658866472    0.02033815375644    2.11295762420519
H           0.28792134598576   -0.98849391293250    2.01224740186356
H           1.11883856722756    0.37341956189235    1.57864695784959
H          -0.50990971260394    0.26776738404217    1.44334599569824
