    19
        -40.92217281
S          -0.42853831176677   -0.71781123355268   -1.09881497357289
O           0.90210978306867   -0.18190025106141   -0.87217900641162
O          -0.51048706122728   -2.14245187629123   -1.24806836513938
O          -1.38259001622404   -0.18393446422825   -0.11842768548019
O          -0.87964259011277   -0.08129778127746   -2.49553146476267
H          -1.40554885065114   -0.75872250244735   -2.91032880393424
O          -0.09899002906161   -2.19267244061743    1.41072171190332
H          -0.16132846892782   -2.35387973728955    0.45261567040922
H          -1.00221615996273   -2.05476071035986    1.70586361224896
O           0.55546808549428    2.40902780189989   -0.90683456647380
H          -0.08270873051050    2.61313296544219   -1.59316320399707
H           0.83134671306293    1.47611427496650   -1.05990525340018
O           1.53271409850343   -0.10112509069669    1.73274528813033
H           1.04461106190648   -0.94220241929498    1.87406617792798
H           1.76110036698479   -0.13709835302626    0.78700977584226
O          -0.32326018358635    1.51997996906586    1.32831977979990
H           0.04028102887746    2.09830137867190    0.57785902202204
H          -0.89228851725411    0.81492025832331    0.78595907889333
H           0.49996778119095    0.91638020311977    1.64809323591740
