    19
        -40.91899951
S          -1.19734691064002    0.07849869038977    0.20272831382029
O          -1.28863724170542   -1.28394150695999    0.67535842924309
O          -0.62059850096854    0.98445749464729    1.17372414311098
O          -0.40920969913256    0.13577071204281   -1.06482227073703
O          -2.63057557836689    0.55135559605027   -0.16108682719234
H          -2.47954198274282    1.39064481259245   -0.64418782762818
O           0.90409012389802   -2.63632650196582    0.76924089954572
H           0.01920202466403   -2.18442277040533    0.84760722288848
H           0.73269673447290   -3.47746312076058    0.34084862766846
O           1.94190707080117    0.91887188668273    1.43200214272927
H           2.09691666568202    0.52209077840130    2.29223427903247
H           0.96009530789131    1.08733181496649    1.38171311310886
O          -1.61564449720212    2.39171952780036   -1.74881475828200
H          -1.91865918480639    2.38482697045757   -2.65975106416542
H          -0.93997924497447    1.69269533591815   -1.67098333256877
O           1.85688403281847   -0.67517087661841   -0.51348218678442
H           1.60875604147386   -1.55682243817190   -0.04013682757071
H           0.91485872404530   -0.31887226165454   -0.86849753971658
H           2.06478613477707   -0.00524415342048    0.25630547349830
