    19
        -40.91376545
S           0.13009974818194    1.09467253033782    0.58792786256475
O           1.32145542933806    0.29499604903336    0.83872696816842
O           0.19181465345566    1.67707669681164   -0.75996683743099
O          -1.10683807113263    0.38299672728622    0.80195214958213
O           0.15612025178046    2.29870286384850    1.59393341640951
H           1.06054725444100    2.59787037855937    1.63333935391761
O           0.08985353105357   -0.30290632409574    3.24689200396969
H           0.79920472351542   -0.26991854163894    2.59655544069603
H          -0.70831855130049   -0.11500813117733    2.74426231450599
O          -2.24642292768863   -0.87083078814612   -1.18434050722885
H          -1.98420507980683   -0.35606417591397   -0.38240392396149
H          -2.29544701454315   -1.78939295294036   -0.90913672847175
O           1.46673221734866   -1.50611269964129   -1.02827903459326
H           1.45389266225820   -0.90006978207650   -0.24224147469853
H           2.38984105539987   -1.61794303372330   -1.26530715001634
O          -0.15958866627194   -0.12592467754659   -2.39947092170318
H          -0.01422098932253    0.75020244794298   -1.80099895587831
H           0.53268323354621   -0.77036066293463   -2.00098753182791
H          -1.07720345025282   -0.47198593398842   -2.07045644400955
