    19
        -40.91831999
S           1.31184207392235   -0.48546473715486    0.33335173429360
O           2.45461229732652    0.35678479651114    0.12582641813635
O           0.27951723978737    0.16314126256424    1.13898224004133
O           0.69706298124254   -0.92454409825775   -0.95448838127236
O           1.75228308129513   -1.78162571615037    1.06483324560275
H           0.93912394041086   -2.32368558811307    1.10937554737218
O           0.98296938807868    2.46086251823716   -0.44092077089280
H           1.70302103965624    1.79935368868161   -0.31311170500138
H           0.66215501107836    2.64043279394122    0.44743927132358
O          -2.13905227360490    0.35015665374384    0.31562530493395
H          -2.62722705952159    0.97633186223221    0.85295326507406
H          -1.25256641228826    0.22555012362766    0.75487119017247
O          -0.71363099498430   -2.64785993731348    0.54226770483969
H          -1.46245657929826   -2.12509054785215    0.84170369277082
H          -0.41604353447854   -2.24344771716719   -0.28787178914145
O          -0.65877210940025    0.96765549138425   -1.69283082471992
H          -1.41816965493931    0.81762851483176   -1.03841019384239
H          -0.05714128946092    1.70208643452762   -1.29533348235754
H          -0.03752713475720    0.07173419169489   -1.50426245728559
