    19
        -40.91899954
S           0.54982488582950   -0.05722129381691    1.08384814225702
O           0.34115896044358    1.34699759037177    1.35337564795309
O          -0.64385638578233   -0.85780648382513    1.25827055534864
O           1.08143912339073   -0.24624349689090   -0.29920932203854
O           1.65970964205086   -0.56454946299774    2.04356062810871
H           1.88507514619481   -1.44916061546406    1.68679234083457
O           2.16551718904679   -2.55910580048830    0.39896097259926
H           1.75564055975828   -1.85614997214959   -0.13876628050079
H           3.07331030220269   -2.64474256275877    0.09862428821796
O          -0.93769796609573    2.70047310005963   -0.42963623258127
H          -0.50655317527619    2.25957725818235    0.35332048131627
H          -0.42567976567975    3.49389811497392   -0.59939064456721
O          -2.38106256284909   -0.76482108485639   -0.64190210137888
H          -3.12452077563933   -0.27924287337838   -0.27730696237341
H          -1.76612931344313   -0.93807736643031    0.12408548869469
O          -0.64899582884544    0.61675485419022   -1.83488985091182
H           0.16884673977136    0.22596508386031   -1.27061397970374
H          -1.44214416339738    0.03060765751272   -1.49974275245636
H          -0.80388260165267    1.54284735395112   -1.40938040881285
