    19
        -40.92136386
S          -0.56238974735551   -0.59555605111317   -1.11770869186316
O          -0.24188511639442    0.80670688303751   -0.97430729379949
O           0.24161132706782   -1.29183334034047   -2.09114595693654
O          -0.56273777205974   -1.26958733421528    0.19277546696759
O          -2.06753874595316   -0.66857923471365   -1.61830372761551
H          -2.10638989613146   -1.47529478722783   -2.12428480192142
O           0.29826732372434    1.74322242784594    1.41272954091609
H           0.11944970686656    1.68340301570728    0.44646236950030
H          -0.56244315691322    1.47646940738810    1.80459679203958
O          -2.03744521937573    0.47349481805210    1.60539968889247
H          -2.72081274691951    0.79363195141041    1.01408093614193
H          -1.61903457052485   -0.28127763270790    1.15011582629094
O           2.42018844715766   -0.22783107661914   -1.05688849972803
H           2.33816222081582    0.67701536455569   -1.37092653875890
H           1.72971784379096   -0.73360821184207   -1.54248621033575
O           1.50941868294641   -0.41669935200401    1.31958552040444
H           2.05848856413726   -0.34090212735418    0.45860814690459
H           1.08536471032638    0.57615978253826    1.49631945572616
H           0.68000814469799   -0.92893448234641    0.99537796713286
