    19
        -40.92136400
S          -0.56365130954256    0.51745545711373   -1.15660347338157
O           0.38964054790079   -0.56740760962420   -1.09103162806130
O          -1.87978110697087    0.12561214869828   -1.59618002381945
O          -0.59753639192033    1.26280406513043    0.11406591592840
O          -0.00318100865749    1.54976634983184   -2.22481047677874
H          -0.78363650458969    1.96596727481698   -2.57963811310396
O          -1.84665267043906   -1.89974642165363    0.08883412005759
H          -1.22545365427901   -2.48495927240444   -0.35356184261180
H          -2.04291380588757   -1.18992130564700   -0.56405657177717
O           1.68641234081716   -0.97454691349477    1.14826082407823
H           2.08424199986571   -0.07641883996900    1.18072526661829
H           1.38284865141490   -1.03894091903419    0.21369609403660
O           2.03287053355838    1.59486300200392    0.53492769817411
H           1.06776799568912    1.65112059524423    0.40187481503793
H           2.42845476672522    1.75556054985652   -0.32348914668691
O          -0.64070099062645   -0.52825611752724    1.87103482111505
H          -0.70866411674050    0.32675808234526    1.30671839126806
H          -1.18908899725869   -1.19095986370749    1.31540272281782
H           0.40902371093200   -0.79875024198409    1.71383060709361
