    19
        -40.91274113
S           0.41961172354773   -1.09524625076537    0.58097468560104
O           1.78726595772070   -0.95199023338631    0.11958342069752
O           0.03646782226774    0.08414738923069    1.38222548040931
O          -0.52354858907822   -1.36232009131190   -0.47711046806250
O           0.37833459889093   -2.32323822298079    1.55832980997765
H           1.01016227371078   -2.13278447644120    2.24587081467398
O          -2.43607185988434   -1.19344929711989    1.58673880068111
H          -1.73389162566563   -0.58353404609136    1.83318074591840
H          -2.12605653771031   -1.61762640426515    0.78148190358734
O          -1.49853422551201    0.69252583684347   -1.76598620113139
H          -1.27935666593096   -0.16337403701597   -1.32296693574241
H          -1.18996487585660    0.61551045833139   -2.67162751324673
O           2.12753016218083    1.25746858808277   -1.16975340989981
H           2.07431283842698    0.35020128247774   -0.76090928991890
H           2.97086554679612    1.62456232425946   -0.89634388564710
O          -0.06436480552273    2.01233566720207   -0.16616460717105
H          -0.74390697994588    1.63107313408724   -0.85137341657647
H          -0.06840948230062    1.28150369529653    0.59932907501991
H           0.85955472386235    1.87423467357443   -0.60547901917624
