    19
        -40.92218956
S          -0.91424560787160    0.08231498006553   -0.70543042731524
O          -0.93783828431718   -1.13492455144813    0.09954381119413
O          -1.19061440873975    1.26557791120687    0.10916369837140
O           0.35134975824038    0.21229493862324   -1.42021964401797
O          -2.06008289246740   -0.00562581655492   -1.75528257091911
H          -1.81723319040187   -0.80905167365217   -2.26088719839099
O          -0.65217744071252   -2.12219531676315   -2.43473630449371
H           0.09636919025680   -1.51226121196453   -2.47303418421637
H          -0.72455546307045   -2.36552308881127   -1.50224521488096
O           2.24293860928713    1.30709805271721   -0.02502444064499
H           1.60053087005183    0.83275410185965   -0.61868722198787
H           2.50646328127506    2.09925328334921   -0.49827443063716
O           0.14634446648618   -0.87638583861663    2.44055712562209
H          -0.24142697777889   -1.08738524837493    1.54875254123596
H          -0.54030606879769   -1.07235930061914    3.08170551114185
O           0.55265465894255    1.54012170251017    1.83534858516465
H           1.36397020408011    1.51204970638648    1.19335509440527
H          -0.25944445425552    1.54570010516023    1.14952591719820
H           0.47730374978385    0.58854727492981    2.23586935315299
