    19
        -40.92136410
S          -0.46604791851321   -0.95945821792069   -0.88623224336947
O          -0.37841818569978    0.46026046972635   -1.14414951100657
O           0.43607010172628   -1.76279724650424   -1.67351097630325
O          -0.34914339884214   -1.23822595061002    0.55597939627037
O          -1.94156435491193   -1.40058943690930   -1.27252928229162
H          -1.85200547139922   -2.31272192317324   -1.53377272999019
O           2.41747462798204   -0.13023368762273   -1.08038665558981
H           1.81541548746071   -0.85092721081382   -1.37487998436528
H           2.18546863662605    0.62939501739673   -1.62187635319098
O          -2.07361355863905    0.57600423749388    1.52620077455838
H          -2.80771333344244    0.61190566562425    0.91059501873216
H          -1.54228649694845   -0.20059852335007    1.26769618660545
O           0.02040290920167    2.08753305645046    0.87000277987667
H          -0.78197302988542    1.80931319860554    1.36452341377850
H          -0.15400009419283    1.73663200240807   -0.03330864997458
O           1.56623020715353    0.20032627233254    1.30239664676772
H           0.82938086140583   -0.50289011496112    1.17205069143689
H           2.08971583443727    0.12095145107875    0.42585338094586
H           0.98660714647476    1.12612096072072    1.22534808711548
