    19
        -40.92136399
S          -0.47930702743250    0.14808197634044   -1.29354165437170
O           0.22410918305904    0.93707321056159   -2.27423024002590
O           0.26816505583795   -0.98289360730240   -0.79187142334195
O          -0.99720883640561    0.96768553642242   -0.18370591511474
O          -1.76958485544422   -0.44071406496951   -2.00733562670027
H          -1.97992849948991    0.20395873769116   -2.67698799653991
O           2.35965297739037    0.96397514089338   -0.73097089217954
H           2.66433937088940    0.05867012871393   -0.83897905674491
H           1.65818815313037    1.08336918405153   -1.41088674588239
O           0.57388837212610   -1.24835743927684    1.79722726427194
H          -0.38857459561997   -1.27167946970817    1.99461197057679
H           0.59662191371198   -1.41631515437164    0.82742906501097
O          -2.04035923482566   -0.95130716202632    1.37690604485655
H          -1.82209266910618   -0.17951911764046    0.82097722972882
H          -2.43433277642756   -1.59845676197858    0.78953174916924
O           0.94973427573165    1.16597614261301    1.38629775053087
H           0.08465684728451    1.26267590875336    0.84128259578428
H           0.86919907445981    0.12742841234783    1.72285037330623
H           1.66283327115232    1.17034840884762    0.65139549769946
