    19
        -40.92071437
S           0.49787247088693    0.30484608027999    1.36244051479376
O           0.84380572376990    1.13676053233759    0.23304206909314
O          -0.43673494483704    0.91528317541534    2.27977731953626
O           0.02795384473032   -1.01814996197248    0.90573928080099
O           1.82350740520198    0.02963182453657    2.17695493706482
H           1.51699808175250   -0.12327691616125    3.06631462195475
O          -1.91861826084942    1.84779062809708    0.33356405790623
H          -1.49973355581384    1.57974970489386    1.18546519508590
H          -1.30960790400189    2.48306847726391   -0.05440616359130
O           1.43501845669224   -2.02909332370134   -1.14245871576060
H           1.27003834225324   -2.97102491085320   -1.20558385271130
H           1.03856999919827   -1.73142082191293   -0.29958075942472
O           0.42074338006558    0.20219158990231   -2.18633486851197
H           0.76315553564962    0.72820789738065   -1.42722470137338
H           0.91541753375642   -0.64213732831336   -2.12244197056170
O          -1.61023455978670   -0.35854458041141   -0.88750505985513
H          -0.81418367596153   -0.11934675181970   -1.60586710578481
H          -1.06346842326687   -0.77859283940283   -0.12712829745909
H          -1.90049943935390    0.54405756450725   -0.48476649124217
