    19
        -40.92135401
S          -1.26469598091927   -0.64076299559806    0.65202075851619
O          -1.51196229729371    0.70495657516275    1.12114545754135
O          -1.64486168108173   -0.81131426604087   -0.75084659544416
O           0.09674424648729   -1.09163825174123    0.89371415795323
O          -2.19543529698208   -1.60508950296073    1.48496862129448
H          -3.05521465779853   -1.20765574865207    1.38710959901460
O           1.61900772374125   -1.36962375568672   -1.25185928663677
H           1.15819476179478   -1.36734206049803   -0.38218934563896
H           1.50903768049923   -2.24946450331800   -1.61713319375167
O           1.73278701098267    0.95522827886228    1.50441059316441
H           1.55790020049049    1.25343403279093    2.39874520708573
H           1.21522759063567    0.13522184606232    1.38407962623256
O           0.17938884159719    2.13255226378005   -0.28086849515767
H          -0.58607810663719    1.80400161117316    0.24741643904908
H           0.95551951292868    1.88829568175403    0.27770860708644
O           0.03533077530622    0.44829131706503   -2.08852877178284
H          -0.76745200593156   -0.06147150055017   -1.67007418218683
H           0.16200817016900    1.27904040270623   -1.39003819847714
H           0.80455354201712   -0.19665941431346   -1.91978099786617
