    19
        -40.91814264
S          -0.19006638722443    0.04656867780413   -1.75297115437889
O          -0.18588991421706    1.37154772004467   -2.30071249907463
O           1.01587936341000   -0.32735432974833   -1.02112079399278
O          -1.38564039488278   -0.24147951266408   -0.94976577383855
O          -0.25428386077211   -0.95939237167128   -2.98404560745692
H          -0.68344897124640   -0.44541511968796   -3.66138738458754
O           1.02423671843235   -2.06082431052538    0.90435467676266
H           1.02239933092441   -2.94164809925248    0.52522574692991
H           1.15851886494311   -1.43283932564832    0.14744900279402
O          -0.39071148340114    1.31847784367462    2.32303966775295
H           0.31205746931932    1.28411124322781    2.97528269995543
H           0.00795493100971    1.72164705477868    1.50662799199543
O           0.81821116817702    2.07439673935518    0.12151304135864
H           1.20756209485829    1.23830472553810   -0.18411882856481
H           0.32814534836907    2.37740210027359   -0.65450972171227
O          -1.18547843213684   -0.90931716367609    1.40810838204132
H          -0.93286239658609   -0.01661390303994    1.86322966499982
H          -1.36012137530283   -0.63498043942406    0.38501455958345
H          -0.32646209367291   -1.46259154935738    1.34878631943069
