    19
        -40.91792409
S           0.53697045150728    0.68810776008862    1.44783307526698
O           1.43156316927868   -0.41779691004366    1.14929284155829
O           0.82153703118599    1.85623418350367    0.63257381922938
O          -0.86214606606488    0.29224604726379    1.38500865132777
O           0.80300873469319    1.11085927682567    2.95077132472518
H           1.65980988094593    1.52276301798725    2.89862393773945
O          -1.16902140232267    1.66067914122903   -0.96775830492716
H          -0.33578598241788    1.89162598317246   -0.47199966260194
H          -1.78248771649865    1.44141551488753   -0.25615577834064
O           1.82220266295558   -0.77184510297137   -1.35449739892291
H           1.74869877902765   -0.57774476019854   -0.37433213202489
H           2.17944954821976   -1.66068609982653   -1.41715839115307
O          -1.38790180027787   -1.85983037843732    0.07817414923396
H          -2.30759786424982   -2.06197818020570    0.26025584589996
H          -1.13374090184030   -1.12421582815712    0.70084164197914
O          -0.60574330871960   -0.57155048919086   -1.95918755638515
H           0.43023364104879   -0.64570442329268   -1.82527709865178
H          -0.99112776557034   -1.18322361635357   -1.22781653976642
H          -0.85792111090174    0.41064486371984   -1.64919242418582
