    19
        -40.91990210
S           1.12504726389379    0.01434889916749   -1.01042763840530
O           0.84162275556504   -1.12228006754209   -0.10444806249648
O          -0.00248523980184    0.93321778953292   -1.00804615744107
O           2.38293760867172    0.63891506007506   -0.72390701942655
O           1.19316302737995   -0.60955023883233   -2.45765732274286
H           0.28474126529878   -0.75486564626838   -2.71356014137831
O          -2.04410118527896    0.40512795370332    0.53442553214544
H          -2.24068388470477   -0.48293626711157    0.17684155443597
H          -1.45648598408536    0.79617861715497   -0.15348054069256
O          -1.59591535839939   -1.97120268731434   -0.66983816149441
H          -1.72731227966236   -2.88461231619702   -0.41066010707096
H          -0.65115815748308   -1.76702669464994   -0.50110710552311
O           1.33358179630383    2.04277737036532    1.24061634168349
H           1.91011260059021    1.60380717893501    0.57365328661860
H           0.76276750570439    2.62483488337586    0.73009380574338
O          -0.03071096081187    0.01783901264719    1.94141804131166
H           0.40370113632751   -0.58427421843557    1.22190520266476
H           0.50621959004581    0.89266209561194    1.84094618338654
H          -0.99504149948423    0.20703929578326    1.49323230859269
