    19
        -40.91908982
S          -0.80047424259161    0.89889790777909   -0.08213332133078
O          -0.49444673477676   -0.24220326592461   -0.99604363729435
O          -1.04548031888281    0.38875930613600    1.25322635821403
O           0.24953159275494    1.88632566102412   -0.13247362816583
O          -2.10158901493110    1.54822044998434   -0.62704522050644
H          -2.70643002129447    0.78795413038062   -0.75508062263810
O          -3.05735755873877   -0.83648462188398   -1.22956896457383
H          -3.32247773941649   -0.93623714541023   -2.14689267012680
H          -2.08441037773761   -0.91305694869864   -1.20855133213864
O           2.72826921407833    1.15677808477246   -0.31373418692118
H           1.82659580933419    1.57230007882080   -0.33755750425771
H           3.13259539022798    1.45288500442793    0.50512192832566
O           0.89004650976886   -1.04417975611628    2.13285001992665
H           0.49305535760562   -1.80990021825847    2.55332591827540
H           0.13025536679033   -0.43213846312072    1.90810912130625
O           1.68537721502417   -1.14018098600257   -0.25958586704690
H           1.46116912354703   -1.22677337565151    0.74760814637347
H           0.75404368009281   -0.83004603255412   -0.67647614741617
H           2.26172676915159   -0.28091979969743   -0.33509842001182
