    19
        -40.91873584
S           1.55492242205691   -0.23667437476315   -0.67554078527791
O           0.40992523325439   -0.84752765346848   -1.32788984467688
O           1.43107901709034    1.21388777125527   -0.63736522534883
O           1.79603363340670   -0.81620106851701    0.63996758625789
O           2.83650697250375   -0.55092952219364   -1.53640637934667
H           2.77253056819748    0.07272795895476   -2.25278847213258
O          -1.91928007529086    0.60770685226269   -1.06410520156419
H          -1.69073884725447    1.31693322470599   -0.45399798845357
H          -1.07680052908995    0.27834271328475   -1.41985769281743
O          -0.39719613201658    1.77324139196949    1.07060051787066
H           0.32808845711724    1.63986642500207    0.39372034981048
H          -0.11193095724508    2.49742261100248    1.63094448013482
O          -1.66761314734549   -1.75465615929766    0.10296289210465
H          -2.14933947732908   -0.98398726615924   -0.27658652609516
H          -0.91299629180307   -1.85060074399074   -0.51029999251724
O          -0.33643749761876   -0.66276928342007    1.89587017923752
H           0.61478463486444   -0.81977905561122    1.48334297279911
H          -0.48947212950633    0.32309227877512    1.71891093819598
H          -0.99206583398232   -1.20009608979414    1.21851821182555
