    19
        -40.92136401
S           0.41361688070967   -0.34763032730733    1.27768158499639
O           0.14069996888437   -1.37093870158117    0.25312725685649
O           1.80425871310720   -0.31047749657870    1.65694545149253
O          -0.13011484663887    0.93243192733127    0.88321727115802
O          -0.40541065453052   -0.81513202925599    2.55488065007829
H           0.20978461023939   -1.35737863189477    3.04050778744553
O           2.36483418373889    1.08885320637811   -0.50392843995945
H           1.99284628045166    1.94147761014908   -0.26156450616759
H           2.34540009233562    0.55414400293462    0.32212318312789
O          -2.46797107442847   -0.91764704785479   -0.18875412172147
H          -1.57020308218239   -1.25046674620655    0.00000427503436
H          -2.85780721014763   -0.70904975353444    0.66195601055821
O          -1.32143467877532    1.13576695756450   -1.44147605828326
H          -1.99423969376845    0.44443525158081   -1.25391450109430
H          -0.97175541088227    1.34165054430094   -0.54430717681199
O           0.69285014689948   -0.22807216764988   -1.91135234600872
H           1.45441321883177    0.33839164622456   -1.52678773108326
H           0.50011065765580   -0.87542213220829   -1.13792323288332
H          -0.19987809149710    0.40506389760355   -1.88043535672816
