    19
        -40.92174067
S           0.60682482314953    0.23927840182943    0.61367203259010
O          -0.47259446277770   -0.75550189877175    0.99870333947273
O           1.56869535522190   -0.38577278615930   -0.26950266418318
O           0.02292231001473    1.44442014500168    0.10218268976736
O           1.30161138127839    0.55244496940593    1.95659146259456
H           1.90470735178446   -0.21511310996956    2.13355700819228
O          -0.07625167715531   -0.11872679211160   -2.40222127225305
H           0.66055762304919   -0.30298925730806   -1.79651770987404
H          -0.15172483766336    0.83836310472229   -2.43939191934149
O          -2.61476151574636    1.68006904686148   -0.37929595778109
H          -3.05124594242328    1.99863141579294    0.41255027220199
H          -1.65568124573392    1.76919148617723   -0.22139946568246
O           2.88787821893957   -1.49145908459131    1.74250577597404
H           3.83197865220744   -1.31555538833104    1.72112960959100
H           2.55943166292171   -1.38927089431085    0.83005825214686
O          -2.09725126864308   -0.88371871185043   -0.85799266654252
H          -2.53573919815961   -0.00761060854079   -0.75406061842608
H          -1.46984283469362   -0.76663253464534   -1.60995603973941
H          -1.21951439557168   -0.89004749319540    0.21938786128980
