    19
        -40.91873675
S          -1.65785962667968    0.42825266354646    0.00731593555349
O          -1.09006478150691    1.33989287198443   -0.97639742409819
O          -1.29071131409488   -0.94843426202519   -0.27374828623543
O          -1.32867792900101    0.80190524950594    1.37737305588333
O          -3.22299700153830    0.55696702736277   -0.12122859877076
H          -3.35601723710670    0.62477728561418   -1.06158451161909
O           0.82471443612718   -2.08792669131515    0.92102712970562
H          -0.12634836213290   -2.00669893713210    0.71408060949821
H           1.23904835898494   -2.03245211220671    0.02904871470895
O           1.43322728556567    1.44879289441024   -0.53564145164312
H           1.73341905014619    2.35886039620258   -0.57389033861763
H           0.46029488173419    1.46443192853973   -0.77047890885223
O           1.13395285411664   -1.21550778184109   -1.55848808271539
H           0.17894527147321   -1.11203273121858   -1.40935222205648
H           1.49983326224594   -0.32471367448168   -1.56442476069618
O           1.06616849006435    0.25608020753764    1.71397352563096
H           0.04825311429845    0.50975921447893    1.72719948829342
H           1.05583823931334   -0.80002497271226    1.46815699913415
H           1.39898101798965    0.73807141377215    0.88705913686623
