    19
        -40.92071433
S           0.94249331986967   -1.13803171764938    0.11721788094540
O           1.49778409993875   -1.39734067125278    1.42559286386443
O          -0.48345019280872   -1.35152179796207    0.02902930421698
O           1.29503779216984    0.21200319000536   -0.36588913888391
O           1.63837075288710   -2.14399720882037   -0.88286775129043
H           2.50827513320400   -2.26811625524240   -0.51382762943435
O          -2.00195791840103    0.64219601708296   -0.76218984763116
H          -1.55966685946462    0.85666079164858   -1.61046831601124
H          -1.66848474640763   -0.25974027450919   -0.54921772313820
O          -0.05742039977493    0.97319958658470   -2.55410662889525
H           0.40088126557919    1.70287152351512   -2.97343606378131
H           0.54143178744231    0.62633074823499   -1.86325289467264
O          -0.48132670786223   -0.18418271924959    2.63547746462712
H          -1.20518806637656   -0.77872899137915    2.41769314720690
H           0.33577283002190   -0.66631107499949    2.36520224767896
O          -0.39868359348116    1.62110300119963    0.84999025404213
H          -1.21412384320872    1.32339288520749    0.17740571458990
H          -0.49762747771531    1.02728432536539    1.68587311155648
H           0.40788280434004    1.20292862217546    0.37177400505265
