    19
        -40.92134951
S           0.45910481476030    0.75498826710728   -0.82022752531503
O           0.22030528068677    1.57097733589680    0.36868358271573
O           1.14662746480058   -0.49429239752271   -0.40842455860670
O          -0.74086500164451    0.47242930086006   -1.56365975920973
O           1.44588994687232    1.51491390815386   -1.74809573242541
H           2.21843394257566    1.68274530530127   -1.16757181262242
O          -2.09235311339080   -1.74073369850112   -1.34828319845947
H          -2.99547680571512   -1.46891264104711   -1.16861958901266
H          -1.61017844244860   -0.92006835237322   -1.61886291578923
O           2.91339557254841    1.50342746529379    0.43671682039523
H           2.03828509529693    1.75211703294541    0.77465969152767
H           2.92647930849422    0.54005326422677    0.44392113947244
O          -1.40083681011922    0.16911850511456    1.83555235126872
H          -0.87283232472770    0.80430444158444    1.28421350626894
H          -1.20876659303845    0.38383057187091    2.75091884743260
O          -0.55197887550968   -1.91847222778049    0.64961169059923
H          -0.95152873760550   -1.19308051071397    1.24868653350866
H          -1.22014386169039   -2.02061294052759   -0.13327678475937
H           0.27643912985330   -1.39273263989614    0.18405770301436
