    19
        -40.92136409
S           1.38204840144181    0.10853133663392    0.00648694396398
O           2.17160445708978   -0.21188955545984   -1.15665521558733
O           0.44781418445473    1.19425365977012   -0.18887229760507
O           0.70214206349146   -1.07402748786029    0.56403272536549
O           2.39039305087128    0.57604174087387    1.14042891509402
H           3.19872242631590    0.11240566145245    0.94047245956923
O          -2.07916638627623    0.80480658457046    0.38379117285260
H          -1.23067753042828    1.23079708874567    0.12310469511152
H          -1.91699159541941    0.56614663247458    1.32324194924941
O          -0.69557166734600    0.08145114890246    2.54308625941224
H          -0.12660065834309   -0.44670731721115    1.95186335663085
H          -0.13325260716117    0.76569647944431    2.91015150569731
O          -0.00382823544700   -0.19768418691148   -2.64370854198997
H           0.89223427335657   -0.27553860339157   -2.24423129806108
H          -0.17980375057345    0.74635117857599   -2.68696293043678
O          -1.39890300111155   -1.26647009082385   -0.79340387626859
H          -0.98182159430836   -0.91691315943816   -1.66079678924641
H          -0.57131834856475   -1.39597700603121   -0.19918746001286
H          -1.86702349204141   -0.40127410431768   -0.31284157373493
