    19
        -40.91892671
S           0.64647330231827    1.17904664670093    0.50083573121233
O           1.44979300811784    1.70011246969313   -0.58421144925684
O          -0.77402574488137    1.18018200721456    0.25322589461836
O           1.10917025056631   -0.15857964386889    0.91572120513590
O           0.89294969770649    2.11448338675466    1.75180689447298
H           1.82674443834792    2.30214830988261    1.72862776014448
O           0.86266213359991    0.11179019843809   -2.55409868922389
H           1.63738785808859    0.04315697637573   -3.11635790842446
H           1.06384185117762    0.81698478804995   -1.88668501164960
O          -2.11978782423798   -1.15473240917063   -0.29737211747965
H          -2.09125438750192   -1.21646307175191    0.68429212989777
H          -2.05769570537112   -0.20022929611808   -0.46079041888265
O          -1.36723712041159   -0.59072878282283    2.20347196959090
H          -1.25016759466894    0.25444787309761    1.73801513417919
H          -0.47317575684507   -0.90114581213613    2.37400956511412
O           0.26199888843934   -1.67766601323765   -0.85313339826657
H           0.68697106927083   -1.14158813998163   -0.05418702222072
H          -0.78586386147775   -1.57583786569571   -0.68443073548191
H           0.48121551778029   -1.08538160145170   -1.65873953349844
