    19
        -40.92011121
S          -0.50629082992551   -0.42898357440535   -0.85652081240428
O           0.92547116258300   -0.08763401937964   -0.98708274779704
O          -0.72907185305173   -1.13329798542394    0.40922270704729
O          -1.33735894420433    0.73781577192657   -1.00858047874435
O          -0.84041738693601   -1.41130446751133   -2.01191504399361
H          -0.43344057112138   -2.26028904724498   -1.73419172696978
O           0.01147867557174   -3.44635638158078   -0.57610458391638
H          -0.19509056119502   -2.71368028826207    0.03933820210894
H          -0.65397564844506   -4.12319862820819   -0.43244057994419
O           0.26703580982330    0.29308034031618    2.36171092381857
H          -0.21923118595792   -0.25321379390939    1.69521733159754
H           0.76385647462307   -0.32223394608094    2.90508274245857
O          -0.44986854234019    3.08445135515938   -0.30580983705037
H          -0.31737411887447    3.57309411204650   -1.12089229940079
H          -0.93642116739540    2.25940686606786   -0.55696681849679
O           1.46708888369985    1.69154771824075    0.60027882557180
H           1.07168529719177    1.24896766937819    1.42988188566611
H           1.33403078846965    0.89810203558627   -0.15360302036767
H           0.77789371756325    2.39372625334566    0.30337534082647
