    19
        -40.92079109
S           0.10378028800034   -0.23624006330136    1.46308570119319
O           0.17466594746908    1.03252811659613    2.14083540989272
O          -1.22383978766826   -0.50184039442000    0.90558169482291
O           1.14229787547349   -0.43875202568766    0.46233381049862
O           0.35294738811762   -1.36204723211787    2.54730614680086
H          -0.25297199961183   -1.13282015198667    3.24504306653055
O          -0.57071690400948    2.72209701462986    0.25015303769616
H          -0.37014046919856    2.13598331768472    1.01186489041728
H          -0.25277791691664    3.59367714654012    0.49342447773029
O          -1.20444123331684   -0.73746310359969   -1.55829944382579
H          -0.56489114303605   -1.52409704219545   -1.60705581053881
H          -1.36704288939929   -0.65397071532762   -0.52015434432404
O           0.71291139037877   -2.40007356443773   -1.22538256442775
H           0.98236928423248   -1.80557261217002   -0.48589456161501
H           1.46348019942499   -2.45395098193122   -1.82040038314718
O           0.45068042180879    1.12596093041754   -1.58211925849571
H           0.02922938992805    1.86579101717419   -1.08472164324709
H           0.97813793397102    0.65876180929189   -0.90291171324323
H          -0.58367777566227    0.11202853484058   -1.73268852271775
