    19
        -40.91965968
S           0.25387683011473   -0.61604544975779   -1.57750779339823
O          -0.39721049686156   -1.78659119721413   -0.96909472768238
O          -0.71968314283573    0.42826416183848   -1.85535391415364
O           1.37159386561493   -0.15702604396992   -0.79059323661747
O           0.81706221586414   -1.10761977228226   -2.96283598167348
H           0.03545831267120   -1.40348962583976   -3.41931616268396
O           0.97482230363831    1.95676920202311    0.93986571565700
H           1.23736325524289    1.48903600216568    0.13024502980002
H           0.01901873762011    2.06739052794619    0.87821964153406
O          -1.69881959814912    1.13566467373437    0.40287490736717
H          -1.35350348994176    0.93735995961711   -0.51581223479917
H          -2.62860198294393    1.34779501697843    0.30140478670336
O           1.49168111521675   -0.44464614005742    1.90982314227379
H           1.40655225887847    0.53902481372652    1.87014516450781
H           1.86836538569113   -0.66050183827890    1.04056507311581
O          -0.84973256410198   -1.10563069576897    1.35884069645262
H           0.14028133071639   -0.88199374985898    1.71417688714773
H          -1.27932230578971   -0.21523213620923    1.15097086751961
H          -0.68920205064417   -1.52252770879242    0.39338212892964
