    19
        -40.92175588
S           0.09536316373227    0.04121989072324    1.04730429578787
O          -1.07727308094697    0.40651417888162    0.28631299246443
O           1.17935030673775   -0.46912320690508    0.05624816988660
O           0.62070457105634    1.08616141802052    1.86609618056129
O          -0.17598860322226   -1.20674937626116    1.87858014614110
H          -0.24940839035079   -2.00208385051937    1.23304499886441
O          -0.03911694347621    2.98222371659982    0.06938552898304
H           0.20812661448148    2.62271965795502    0.93726623002571
H          -0.82486488143701    2.48161470502776   -0.17773005961956
O          -1.94540866807513   -1.51154066796007   -1.32334404346333
H          -2.89453352976249   -1.59149040784676   -1.21100029649631
H          -1.67364736106421   -0.71379395575942   -0.82196071239123
O          -0.27072947619483   -2.98416870491901    0.07981187359097
H          -0.94365892532097   -2.58685657016889   -0.52859319057254
H           0.58137191762227   -2.85116427560227   -0.34544858441801
O           1.93358756692838    1.67758051974258   -1.09121130862211
H           2.74008929246896    2.00649183594695   -0.68688550700970
H           1.52877367572026    0.32498634975091   -0.47054905390567
H           1.20726276111305    2.28745872331353   -0.79732765980998
