    19
        -40.92136403
S           1.00277263287503    0.55907427743786   -0.77683398799465
O           2.39770590689705    0.33313515597368   -0.49073530008841
O           0.25752247213609   -0.63936161327501   -1.08986020057266
O           0.33221092555759    1.33127042741113    0.28398371789840
O           0.93507963598505    1.48514937645583   -2.06505633535171
H           1.74289196901113    1.98972123800139   -2.03245396557805
O          -1.92475675761391   -1.15936661734805    0.26368480074348
H          -2.37582738653025   -0.32000575137812    0.02334279604919
H          -1.19644115019058   -1.20629789002236   -0.39718023235674
O          -2.18271275998915    1.32878412575861   -0.65501950071131
H          -2.11905607168489    1.41829989171160   -1.60743774519303
H          -1.28863553647027    1.50664293176001   -0.30693243155195
O           1.74907255651308   -1.63859982508481    1.13336682864570
H           1.49056229151370   -2.31093321552244    0.49679940708106
H           2.16688356450263   -0.92482105718286    0.60008690632741
O          -0.31230429846922   -0.39754941555640    1.98374129768039
H          -1.11483359789527   -0.80576837659337    1.36120595306179
H           0.50319765359827   -0.99527453334502    1.82208036263046
H          -0.06333203975081    0.44590086079978    1.45321760929292
