    19
        -40.92136402
S          -1.34919718156271    0.31615406098318   -0.01958765687923
O          -2.33346059723909   -0.52485487652552    0.61508782300722
O          -0.36291651429491    0.86426403292731    0.88412352041334
O          -0.69999427584739   -0.34788288344233   -1.16360855728453
O          -2.12558037015179    1.55108021244651   -0.64689908456069
H          -2.99430739438464    1.20866913125850   -0.83781559125772
O           2.17686054078972    0.50688934316438    0.34984380245235
H           2.14017685101504    0.94165099401447   -0.53070176817546
H           1.33956583180334    0.80862937088005    0.77099773706143
O          -0.41866553710365   -1.80880786476451    1.89215169551045
H          -1.24640511986916   -1.46882194223931    1.48259349145778
H          -0.16801191321743   -1.14616020421440    2.54189602515975
O           1.07969076359783    1.54223206840393   -1.84694347675545
H           0.64257636750975    2.38622608771395   -1.72136354337708
H           0.38283686078776    0.86358877703597   -1.76958374291066
O           1.14325665218594   -1.69454041822050   -0.12291964139304
H           0.40825075328211   -1.28310312874117   -0.71037557279275
H           1.75435828863318   -0.81219619779907    0.09436551364664
H           0.63096597404309   -1.90301656288475    0.73873903667633
