    19
        -40.91376534
S          -0.47841910411807   -0.94245232028454   -0.66586177358646
O           0.70288462779219   -0.44743282011371   -1.35943870519685
O          -0.07707269860717   -1.78951514133977    0.46608461096685
O          -1.39198342151452    0.09573636751268   -0.25363344516189
O          -1.25072981075796   -1.87352798213043   -1.66539834846483
H          -0.58967036197635   -2.38915787827387   -2.11931007795659
O           2.15730847688725    0.82294099118502    0.37874544347782
H           1.63593161560593    0.41907662847391   -0.36310969298588
H           3.07980765549579    0.63822836171761    0.18984204578207
O          -1.11882151778008    0.94424054751575   -2.91519528747689
H          -1.66198398303591    0.86862662157446   -2.12510578182675
H          -0.26196602794228    0.59040813193307   -2.65487341207188
O          -1.17143782112103    1.15632861173464    2.12138231732797
H          -1.02723304801603    2.09315462870237    1.96827670287645
H          -1.43276828692151    0.77115803448051    1.24938866506023
O           0.86180709441206   -0.34077623641012    2.22184967250483
H           1.50529078535332    0.17004768215443    1.60664659814318
H           0.05599495047635    0.29258230481140    2.36219141256065
H           0.46306088580837   -1.07966654324136    1.55751904602454
