    19
        -40.91898049
S           0.41215080019701    0.54906124820060    1.48249135259457
O           0.73435772290477    1.32142162826155    0.26964413929008
O          -0.69991824952401    1.10598163251748    2.20716946528630
O           0.26450260510469   -0.85942763694934    1.15315664935292
O           1.69033157871599    0.65934334438901    2.40982109148488
H           1.55281009596400    1.44283851483088    2.93563927158477
O          -2.27826311592721   -0.33170354923282    0.60897240074118
H          -2.21260010458480    0.32562706568887    1.32276906842629
H          -1.52564388496665   -0.92076453356090    0.80276373413099
O          -0.02656172826411   -1.00946305898273   -2.53404038014877
H          -0.45124638227873   -1.86076888918670   -2.41008563467114
H           0.82406247213786   -1.03877164227110   -2.00957443764323
O           1.97481598031185   -0.94008161009793   -0.86132155465939
H           1.44007268777715   -1.07566949222242   -0.05160464455626
H           2.25979829145218   -0.02258619383882   -0.81048482099103
O          -1.13687964162815    0.89118446586200   -1.29717491886842
H          -0.32530486452520    1.20064208746016   -0.69432056584011
H          -0.73840015382467    0.14307540047378   -1.90657592265964
H          -1.75808410905441    0.42006122872093   -0.61724431288956
