    19
        -40.91892655
S           0.95844754396936   -0.91267680788834   -0.55104981870072
O           1.17706599850973   -0.31233440141475    0.77838552641346
O          -0.44828195772662   -1.09352680333074   -0.81103692641821
O           1.67554024313744   -0.18935698682613   -1.57901969709673
O           1.59715386002970   -2.35706389504442   -0.46903283684932
H           2.53320275799908   -2.20896940035216   -0.56667637252466
O          -2.34024685209378    0.35898428594441    0.55317232488602
H          -2.17126449515235   -0.34233607562372    1.22220770204283
H          -2.09371616192155   -0.06887491431137   -0.28238509843188
O          -1.09322825666267   -1.68187961151296    1.74584221085306
H          -0.87343563696106   -1.80365192678712    0.80725039173647
H          -0.27164492321429   -1.39133347488231    2.15271537257842
O           0.45148440255764    2.10192087242975   -1.62994310231255
H           1.09375285453113    2.77213034877990   -1.87358648596180
H           0.90474406932345    1.22727397140718   -1.74170651412017
O          -0.25169252266942    1.71551960084082    0.78115045007060
H          -0.03827234068063    2.03358357878734   -0.16803356010792
H          -1.21129237133251    1.25290052128069    0.73228549075252
H           0.40168378835338    0.89969112849029    0.89946094319194
