    19
        -40.92175608
S          -0.36530080261911    0.82617686465439   -0.54103581774057
O           0.08065947308131    0.84344838904200    0.94841416190137
O          -0.15140406659593   -0.50471403680495   -1.06155370364791
O          -1.70457835269559    1.30444064742823   -0.66635700301653
O           0.61611226743208    1.80812835155534   -1.16942254437382
H           1.55006571197452    1.59655934633068   -0.79841702705949
O          -2.73728978507022   -1.15201764385661   -0.26492810845692
H          -2.73486875675296   -0.22429846625207   -0.55226036449373
H          -1.98014894863574   -1.54007685754994   -0.71811559773984
O           2.31082048441153   -1.41411374443261   -0.69328670540411
H           2.61865920838351   -1.79124256695289   -1.51965211434201
H           1.36008853645226   -1.20992057369190   -0.81973495563661
O           2.78576158895491    1.10243736535438   -0.07462408234113
H           2.54571327931963    1.17145458292186    0.85392009802868
H           2.78562662949331    0.13460346807693   -0.28470466903627
O          -1.76784421015722   -0.48596326196624    2.09260986499043
H          -2.20568586601680   -0.88312484438089    1.29480454973564
H          -0.59353253319727    0.31103797180831    1.48890788394912
H          -2.41285383780335    0.10718501870989    2.48543612470219
