    19
        -40.91893387
S           0.54050137427880    0.37711159093898   -1.60844165821661
O           0.56255503539245   -0.87006666169641   -2.32967504820928
O          -0.81837066622579    0.74646883992562   -1.18309895966053
O           1.47462817590909    0.46673581736938   -0.50346912417287
O           0.97992174416679    1.50097185818285   -2.64030382016042
H           0.63474294527273    1.17972246826618   -3.46786157293957
O           0.97523927072755    1.45328226484240    1.83908173473435
H           1.28975837045363    1.07406691723093    0.97789141326336
H           1.25643876093397    2.37001407100076    1.84856348069980
O          -1.57272475653871   -1.62889559526972    1.42869108277985
H          -0.74729188420740   -1.89457748099691    0.94130928784141
H          -2.30507288543716   -2.00668733401089    0.93773928820988
O           0.57352208120419   -2.11289770837474   -0.00071534084225
H           0.51046754319131   -1.83451235893848   -0.93686128768862
H           1.33022675597578   -1.62587987471331    0.33916054128326
O          -1.41439457095455    0.88458510511222    1.19931408161524
H          -1.21094698127839    0.89007645518552    0.14797022767483
H          -1.54388654091527   -0.12349813038733    1.39930441732966
H          -0.51531377209722    1.15397976630454    1.61140122650244
