    19
        -40.91965977
S           0.41223928057421    0.45123941889569   -1.59962353025707
O           1.58751463597133   -0.37266132611696   -1.27688858091398
O          -0.74981349818074   -0.38611223064216   -1.85269248947390
O           0.17769444805433    1.46281662425925   -0.59915213246943
O           0.75825186444417    1.18654748878431   -2.94780826476135
H           0.90915784442576    0.46646556375859   -3.55237676361627
O           0.84895567096009    1.13621472568664    2.01499292596833
H          -0.13429697376929    1.13231592189246    2.11332063437783
H           0.97791159432446    1.62778426484278    1.18690620228107
O          -1.70269871372605    0.95911688787241    1.35733010706548
H          -1.32881625234589    1.30931758563796    0.53224707412256
H          -1.91348246842911    0.03582563087804    1.17646574264556
O          -1.22806040928949   -1.65143336653858    0.32193717764681
H          -1.54155405402303   -2.53527555672970    0.12111388829301
H          -1.12697519377014   -1.18212586034630   -0.55676862660436
O           1.19620561104670   -1.13258603614176    1.03763110638795
H           0.24811938185057   -1.45645417216651    0.90810710337640
H           1.48833947146936   -0.85417923462467    0.05328104395444
H           1.12130775041092   -0.19681632920176    1.56197736197602
