    19
        -40.92175599
S          -0.13451796637253    0.74354213055735    0.73244197891495
O          -0.12599514421948    0.95133585042311   -0.69743712596836
O           0.04266041239955   -0.77713027693958    1.00443134493116
O           0.84629489862674    1.49544412563150    1.44719890357279
O          -1.52540235390644    0.99943767609341    1.29995197840910
H          -2.13647300191777    0.23660984776237    0.98474871614490
O           2.63521581987454    1.28176202887600   -0.55608859533098
H           1.91989363443421    1.31282552296798   -1.20145380798209
H           2.24161413366564    1.64978253783020    0.25206026978795
O          -2.79161220812445   -1.00696800182085    0.41974938286996
H          -2.58454741006328   -0.93906655957709   -0.54637796082914
H          -2.24549412182506   -1.72262730035621    0.75760680043768
O          -1.86658247611061   -0.55922800859207   -2.00612689468924
H          -2.34157386707230   -0.00222272877701   -2.62581794647944
H          -1.14474517915539   -0.00822698959269   -1.63597861052819
O           2.49393774796945   -1.15994757433544    0.42289055530133
H           0.99819669927283   -1.03246092166630    0.77647522010603
H           2.68849604902227   -0.30741956280219   -0.04746351660135
H           3.03063434352181   -1.15544178565351    1.21918931792781
