    19
        -40.92135350
S           1.07483881140060    0.53279570451770   -0.99931601579621
O           0.93548216036663    1.73879078841961   -0.18238400535779
O           1.92337855284553   -0.45462261913207   -0.36892413288317
O          -0.22147939707901    0.00607427211309   -1.39623735260105
O           1.78973152272988    0.97868390676234   -2.33362968492643
H           2.66932535269192    1.19555122291669   -2.04036978009798
O           0.53921277331057   -1.15002633585631    1.74385010671190
H           1.25036324327843   -0.95145257392523    1.08971186062025
H          -0.07170625274503   -1.73622514205007    1.23632987220537
O          -0.74052810854102   -2.36014716948821   -0.22630715753987
H          -0.61751401200035   -1.55843241385949   -0.77118680708120
H          -0.21725454736224   -3.04859240945980   -0.64038716333629
O          -2.29917808230856    0.88269887906359   -0.01237321900241
H          -2.63256912637721    1.69250680822714   -0.40319473834275
H          -1.63561801658527    0.51978285606669   -0.64206281225498
O          -0.48093305828842    1.10447469471604    1.76489524136689
H           0.16427065165686    1.49973910261283    1.05320271101812
H          -1.34660117404839    1.01449800604508    1.23706994410761
H          -0.08322127294753    0.09390242231204    1.89131315318749
