    19
        -40.92136401
S          -0.94988174971467    0.14797833289687   -0.99914896957656
O          -1.20244888876824   -0.69752015686645    0.18117491610829
O          -1.82407342824854    1.29351526007044   -1.04851214185959
O           0.45557311180151    0.46648283431924   -1.11204389093771
O          -1.30937910563946   -0.76771698965081   -2.24543500980835
H          -2.23196498084473   -0.59138419946062   -2.40694205638783
O           0.73351706389547   -2.53051411365870   -0.13327999045189
H          -0.07898174271177   -2.00440151011292   -0.00975221340645
H           0.79846408725080   -2.70069303007844   -1.07452990389432
O          -0.29986266050815    2.53905085177575    0.70382796889314
H           0.45967988040954    2.75146538137600    0.15422151617347
H          -0.98981911515127    2.21992530164641    0.07884155718156
O           2.10298102523990   -0.41220774724082    0.72694575439095
H           1.74347571059606    0.00811204654093   -0.08744604903248
H           1.88400074158649   -1.36048037065371    0.59080867779611
O           0.13587417292858    0.38733167076079    2.00445221884634
H           1.09220899872409    0.04708422387693    1.59638427946437
H           0.00538861841306    1.34307297518131    1.66049553931053
H          -0.52475172928541   -0.13910075069191    1.41993778717732
