    19
        -40.91965975
S          -0.93195094969749   -1.01550548369990   -1.01615964473951
O          -1.95529732765283   -0.55984011086389   -0.08842432972738
O          -0.59706743953865    0.04181150371421   -1.98271009084793
O           0.24355828837833   -1.53026839555750   -0.35863175454555
O          -1.55748227319353   -2.18821807666415   -1.85967191305592
H          -2.31264578566339   -1.77819061427663   -2.27006710225153
O           2.46272191982368   -0.02456861704031    0.09095763843926
H           2.16606217418991   -0.13505700231045    1.02706651380118
H           2.06576808643219   -0.79395712872554   -0.34994893431662
O          -0.95140235954849    1.41534759558049    1.19592762142449
H          -1.41109563312665    0.64032113471770    0.75939763695272
H          -1.63120729271170    2.06934118510707    1.36899348123192
O           0.88189715151111   -0.54905667489561    2.14034125867077
H           0.51564519626862   -1.15176782406946    1.47261942972585
H           0.23926163980846    0.16437746669953    2.22752676103762
O           0.78135181210179    1.63858293275692   -0.70290882539172
H           1.59860321919777    1.01466093372225   -0.38831484232083
H           0.22281165638442    1.01915420724631   -1.36329970695385
H           0.17046789703614    1.72283296855881    0.09730680286683
