    19
        -40.91833213
S          -0.92129656018249    1.40895661125216    0.38067383072798
O          -1.64337168359641    1.75589155509827   -0.81795379704048
O          -1.44996133910685    0.18603335617856    1.00509156834921
O           0.51724226251575    1.33646559043550    0.21780049345381
O          -1.18485134930204    2.56926344189276    1.42659942580418
H          -2.11518710973953    2.74677085327154    1.32634920969427
O           2.08085623091257   -0.23921175762372    1.55389264913552
H           1.55990841523893    0.49414706669914    1.13725942708821
H           2.86404559334038   -0.35757904386306    1.01246508073030
O          -0.01845107321275    0.31841246255718   -2.30641823363266
H          -0.75117659910376    0.82755984642066   -1.89881421732045
H           0.77068558200660    0.79796524743100   -2.03883322937875
O           0.19089756179779   -2.11403513496383   -1.36142501880978
H          -0.54000619713011   -2.61240547646773   -1.73165743524141
H           0.13198143383822   -1.20192421320734   -1.76097252125585
O           0.06800623911720   -1.73722893940631    1.14764708517584
H          -0.64473233306622   -0.92833888278078    1.15547785233152
H           0.14136142029830   -1.97879011890288    0.14902731279266
H           0.94404949535351   -1.27195247399821    1.40379051736020
