    19
        -40.92044989
S           1.22566934400123   -0.70731955695912   -0.74443545424953
O           1.47588037670941    0.61551476450428   -0.17719695102302
O           1.01434932269987   -1.70388123668392    0.28824419301526
O           0.15672081227259   -0.66607550934990   -1.72744855212067
O           2.53919018454043   -1.14065051966995   -1.51430000891119
H           3.03974206251094   -1.60493948382940   -0.84987480182770
O           0.34530163698230    0.92674792669726    2.11941907015391
H           0.66112860861556    1.75758322235073    2.47977448555934
H           0.88981457213469    0.74019991016731    1.30762142422143
O          -0.82427706954224    1.66837389818155   -1.23125734048368
H           0.00859868898413    2.06359220240324   -0.94694776552772
H          -0.53323262588466    0.80399601313055   -1.62115582413081
O          -1.84204922103766    0.70482856234850    0.86322016874024
H          -1.53463254490409    1.18767745116251   -0.01641627961791
H          -1.04908747543949    0.81711459342342    1.50767070788805
O          -1.56687673784104   -1.67608896903526    0.12782591881774
H          -1.55039779605476   -1.62556251482702   -0.83670411033529
H          -0.61573770114392   -1.83670568620610    0.35798284278959
H          -1.84010446760981   -0.32440505780892    0.61397825704886
