    19
        -40.92136410
S          -0.80201091834235    1.01232799305947    0.50401827169514
O          -2.23203101743189    1.00703839139218    0.32004217801349
O          -0.29375784039506   -0.11684812572118    1.24985430432980
O          -0.07508086261286    1.17038572735378   -0.76801952464032
O          -0.44483525682594    2.31025566195686    1.34605596537377
H          -1.13017359046520    2.93236800700253    1.11893043477380
O           2.45280595683525    0.96330357166837    0.11100237906010
H           2.48442147336850    1.40944564182252    0.95892366159412
H           1.58904345992085    1.19121523186126   -0.28164059712693
O          -2.13127889890462   -1.51627478250895   -0.43334062185000
H          -2.35074172500858   -0.58292922345368   -0.21151711179176
H          -1.96434813810926   -1.94383963311896    0.41130115565021
O           1.61990987265412   -1.56616567205999    0.20060065937410
H           2.25085630917930   -0.81856629945836    0.10684440622872
H           0.95277655695892   -1.20427920975316    0.82783182374788
O           0.06430678809271   -1.16101217633126   -1.68463381993741
H           0.03605930973233   -0.14884183050081   -1.51391680533962
H           0.81422610735266   -1.47509929436499   -0.95113235677472
H          -0.84014757598391   -1.46248396884238   -1.31120442237067
