    19
        -40.92158999
S          -1.06790253808306   -0.64442636673877    0.78986800133625
O          -0.93372138273437   -2.03323540142783    1.13628497982888
O          -0.07187346679131    0.19904983448049    1.46360199051869
O          -1.09453652608643   -0.36352729807212   -0.63772732962375
O          -2.48074590942829   -0.16789509243675    1.32696294850962
H          -2.59772334793511   -0.65425857653858    2.13731111864721
O          -1.05799669270634    2.17255032365597   -1.28791213716247
H          -1.14743164516239    2.25045414322939   -2.23989777527417
H          -1.28955655368263    1.24190264236030   -1.05765884177254
O           1.43790107201707   -0.43423001658565   -1.47277780860833
H           1.76174202849960   -1.08697492230840   -0.80751603109268
H           0.47042240310082   -0.57462083528170   -1.47445346350607
O           1.68792925541999   -1.94758554451514    0.67751477130897
H           1.97252925005241   -1.45403934714223    1.45026014036970
H           0.75061547883361   -2.16879832941095    0.84329403348909
O           1.15925357776843    1.64340726033409   -0.12881447247192
H           0.37431820236531    2.07655865571077   -0.60578192027121
H           0.68639329549628    1.11706745083570    0.65312762558222
H           1.44038349909312    0.82860142982087   -0.76568584983580
