    19
        -40.92136398
S          -0.64766770648243   -0.46280790600815   -1.13548485753795
O          -0.72892835626239    0.87828752636910   -0.60203555987805
O           0.02681399336805   -0.55649886220110   -2.40635295527150
O          -0.08980562991995   -1.39134585894132   -0.13643385580822
O          -2.14114118976828   -0.95199873603478   -1.36263990615552
H          -2.07618556722794   -1.57374732177399   -2.08197532086568
O           1.99020329358697    0.93781416118358   -1.48033793274741
H           1.56226329638079    1.79843156980449   -1.46394474834990
H           1.37345259911615    0.35185217389536   -1.97504620373113
O          -1.55652200924368   -0.71393982703007    2.00679496480406
H          -1.07877860321018   -1.12550846401154    1.26198357983780
H          -2.44196570026775   -0.53343441993126    1.68654951150966
O           0.14688110719404    1.32626321974457    1.82580166322951
H          -0.45312357910201    0.67586413199888    2.25367692385595
H          -0.26563694403295    1.44517191546487    0.93962912906293
O           1.86686805045082   -0.14933838586823    0.82542604563938
H           1.23280900585212    0.54557399891308    1.38718622413599
H           1.17051118066485   -0.83138534772713    0.50274086693282
H           2.10995276890249    0.33074644215747   -0.04553757865802
