    19
        -40.91384586
S           0.97359609671329    1.67468599848179    0.11645294933193
O           0.78295370293228    2.16513569118939   -1.21976821352348
O          -0.23022541095036    1.08257160567233    0.69209495099962
O           2.10378844122704    0.73657326836051    0.21785831018189
O           1.34112287232012    2.90157278054994    1.04299286708175
H           1.97029261370976    3.40725986046256    0.53564624312213
O          -0.36146351104829   -1.40278764662684    1.64771179444476
H          -0.35761600702995   -0.42346841647976    1.60385769205922
H          -1.20091533526070   -1.67310702697090    1.21476305968848
O          -0.61789791701823   -0.20064290971052   -1.56222990293585
H          -0.62226405968539    0.36732096692838   -0.75691768231198
H          -0.31827821140231    0.39651967011982   -2.25522017345956
O          -2.45227470364191   -1.67367294345303   -0.02664067603277
H          -1.99929474642063   -1.28576162024120   -0.78902176569493
H          -3.19955522245504   -1.10524987193172    0.16803680207265
O           1.23618062537865   -1.51260445435193   -0.25369938270791
H           0.62093586266220   -1.62693944797892    0.62607888910868
H           0.58227117759800   -1.24194150178566   -0.95865622767656
H           1.74864373236471   -0.58546399222612   -0.04333954375375
