    19
        -40.91384632
S           0.55978253241367   -0.40232813099193   -1.81350148357731
O          -0.42720079741904   -1.38404404975842   -2.16608991065708
O           0.00921892230304    0.73332046037537   -1.08014327338709
O           1.69648716969703   -0.98353910051314   -1.07965475611680
O           1.16261768505140    0.19291116599321   -3.14794427195834
H           1.31840079157620   -0.56635476202717   -3.70321119456523
O           0.87096398484104    1.52396833644874    1.31475276912429
H           0.67811956334235    1.51366978696752    0.35356534164357
H          -0.00431159846954    1.63067267867460    1.74804301652032
O          -1.71246648727794    1.30966156452905    2.04113663226863
H          -2.30745100985455    1.90701546647272    1.58430775999304
H          -1.83788315633525    0.43550877533447    1.64487279734824
O          -1.33879708316766   -0.94989688857667    0.41443285885866
H          -0.99219973786556   -0.26630332505417   -0.20474010417366
H          -1.58890560616775   -1.67373511719033   -0.16871567881660
O           1.12592128765227   -0.94870162382852    1.30908436493324
H           0.15506497868409   -1.15669356851898    1.20222788218815
H           1.49541240336094   -1.03654552957105    0.29756312765266
H           1.13722616763506    0.12141387128676    1.45401412272273
