    19
        -40.91384641
S          -1.10701562279819   -1.12565212198412    1.12970055369011
O           0.27535332756256   -0.65836023126210    1.09511063100678
O          -2.02705023586110   -0.14362898826988    1.63098468952733
O          -1.50391971664498   -1.64951292701138   -0.18814496801757
O          -1.12291297796408   -2.36395546706596    2.11202353221162
H          -2.04667202738445   -2.52200233597883    2.28711683914488
O           1.78888403976983   -0.63271878845485   -1.09983148307595
H           1.44794157410239   -0.86009006261148   -0.20932305217186
H           2.14932270880297    0.27671773267336   -1.00919380099950
O          -0.56451199452194    1.59510954139120    0.04625187469669
H          -0.20301427966421    0.84982611295632    0.57976024325854
H          -1.41828755456765    1.76920555634028    0.45542346795092
O           2.16104125403818    1.97013183109852   -0.52050054480870
H           1.22384240041892    2.15509196384077   -0.36435996701692
H           2.61687520551173    2.14031815116796    0.30577764726890
O          -0.52341827984903   -0.17366055022973   -1.88896406902147
H          -1.02113534055821   -0.88925333508205   -1.25022340772209
H          -0.64039160359296    0.68146230681534   -1.38649463450241
H           0.51506912318774   -0.41902837833259   -1.72511357142010
