    19
        -40.91908986
S          -0.23587777737205    0.72535882141395   -0.93458983398492
O          -0.58790795576140    1.55923465972825    0.19873227108818
O           0.96834709386276   -0.08871379601751   -0.59122949867505
O          -1.31496636950235   -0.12395181178474   -1.37553084190817
O           0.18324799830221    1.63140278952175   -2.12409731038800
H           1.02992751651988    2.02718729020243   -1.82983607695814
O           2.57215738717650    1.95865731025779   -1.05151564555976
H           3.30114702619099    1.72243301833634   -1.62986757489558
H           2.21022952567771    1.12282667072216   -0.70031385401648
O          -1.72924358936587   -2.41509467088484   -0.24097659155906
H          -1.62752629900605   -1.61364704475259   -0.81858768793321
H          -2.59067831535687   -2.33196935670344    0.17463305037213
O          -0.93256633886273    0.20557627393658    2.34845649531685
H          -0.49655397054827    0.69322330756477    3.05044761955081
H          -0.90336947582211    0.80092627612183    1.54402312099643
O           0.24138575097892   -1.68014554191650    1.15250090041513
H          -0.53989102194434   -2.14319598301325    0.65063614939477
H           0.66373497715668   -1.05792949333724    0.39688314636650
H          -0.21159617234326   -0.99217871936564    1.78023217238343
