    19
        -40.91384643
S          -1.47554184300990    0.80834846065471   -0.96794563990525
O          -0.06877972756367    0.49964136478424   -1.20533696958750
O          -2.33814305813870   -0.33197241812502   -1.10137605398472
O          -1.63905928470450    1.49074021817678    0.32666527653185
O          -1.88051207021839    1.86603630110366   -2.07045582823690
H          -2.83281376783187    1.89836812063451   -2.03675613121208
O           1.88215397716383    0.98406542225844    0.54553483993033
H           2.33704013324102    0.11510540380395    0.49048910504042
H           1.32325647853532    1.02890267376842   -0.25863450790476
O           2.47544527035801   -1.62431867911296    0.23706883945011
H           1.56242189206797   -1.92953982704930    0.33752215623830
H           2.75351487451522   -1.87351588412639   -0.64615857436283
O          -0.33343708931880   -1.63234588008941    0.30054101258648
H          -0.20663476383843   -0.94813664601942   -0.39702963027072
H          -1.22393679491019   -1.95817088053271    0.13480286902290
O          -0.10982966448520    0.41672232685617    1.92055837111489
H           0.82164171586424    0.74033300196197    1.48138093082660
H          -0.83153088350086    0.96490926876911    1.33214773043440
H          -0.21525540422830   -0.51517234771557    1.57698217428759
