    19
        -40.92158885
S          -0.15580392803387    1.41050066053371   -0.40808028319521
O          -0.21915096980141    1.05194898007066    1.01513053972229
O           1.01860490347862    2.17542132283255   -0.72751440734937
O          -0.37567209720080    0.23864865418533   -1.24194798866876
O          -1.40704532771803    2.34456231839284   -0.67872703425012
H          -1.11744107083855    3.20909622553697   -0.40351268812063
O           1.24446811292859   -1.66820689688698   -0.31532843244526
H           0.76220947821178   -1.11187633490143   -0.95831281061952
H           1.95025561967512   -1.06697503782621    0.02195791515738
O           2.56664816311799    0.44044418510773    0.56951975926981
H           2.34568869140322    0.66892670228020    1.47537055782939
H           2.16279403701804    1.14075720030277    0.02045619731090
O          -2.34884022231091   -1.31415865436823   -0.49955172697919
H          -1.75856185220503   -0.63774745527007   -0.90787452797194
H          -2.45508095208090   -2.01344590753152   -1.14765125575571
O          -0.58368412583088   -1.37509566907517    1.35003580000470
H           0.23973538681892   -1.66101140906605    0.72678838183114
H          -0.46755183675486   -0.32654028203652    1.34674460138048
H          -1.40157200989012   -1.50524860229948    0.76249738281266
