    19
        -40.91893389
S           0.10518266072462   -0.51888579659262   -1.65580240503761
O          -0.79095725792000    0.58795847437837   -1.28739671117726
O           1.37511005144855   -0.04783443409474   -2.14717356814889
O           0.18166133965366   -1.50274069863150   -0.59387304821698
O          -0.60463018956151   -1.24947348027931   -2.87374545861744
H          -0.29886818718596   -0.75523200465992   -3.62834847852682
O           0.70319300174094    1.93427224375323    1.71261163478757
H           1.32216737858590    1.29450030454079    1.26874759764855
H           0.86761375617222    2.78833144765165    1.30802190269462
O          -1.28094231974762   -1.55626966236555    1.54319030431073
H          -0.68076084460608   -1.65295963647047    0.75901504528604
H          -2.02414553700554   -2.14188634485283    1.38750315402564
O           2.14870433655757    0.20944641778561    0.36353109779691
H           2.02076957124987    0.23972113838375   -0.60625374181562
H           1.91743458762629   -0.69300702688746    0.60300603967868
O          -1.51389145761290    0.92057500233142    1.04017031446700
H          -1.50481444100180   -0.04370545200146    1.38809718194385
H          -0.66571414980017    1.38102656216000    1.41653002424158
H          -1.27711229931939    0.80616295585363    0.00216910464840
