    19
        -40.92136400
S          -0.04004351511920    1.34517877958693   -0.33556266996730
O           0.33587150580129    2.37100022656749    0.60529807728084
O           1.02182696718466    0.42151257757748   -0.66516710826338
O          -1.25376338463225    0.62117401256812    0.08188686205767
O          -0.44147565219673    2.07634213327908   -1.68665432729311
H          -0.76274703570851    2.92801149145527   -1.40445165966169
O           0.59404207692431   -2.14882745246049   -0.38656539698283
H           1.01272666516996   -1.28546307483002   -0.60698000210053
H          -0.17535129634323   -2.17379508474221   -0.99728527064575
O          -1.40601469027864   -1.20902260458849   -1.87611810098233
H          -1.14065344557918   -0.76815421232484   -2.68500203366791
H          -1.51783069546551   -0.50532182540099   -1.20939693896054
O           1.43563934303367    0.54972997098321    2.16006500332263
H           1.05385486193992    1.34723374445873    1.72793210643440
H           2.22620441065035    0.34239739155429    1.65399295634397
O          -0.40250369689989   -1.14446236321896    1.64758973497548
H           0.35996729794715   -0.57458845279090    2.02507943003033
H          -0.93644799050599   -0.45165279884783    1.10920600776348
H           0.03669828474596   -1.74129246916206    0.84213334028679
