    19
        -40.91965966
S          -1.66890526253274   -0.38315129098175    0.00799792466585
O          -1.23065513090105   -1.26122990696041   -1.08795834219165
O          -1.26719863565993   -0.92711477754789    1.29572502455727
O          -1.23904765652121    0.97840071341132   -0.19357167359221
O          -3.24256542147103   -0.39629923566772   -0.03228182777206
H          -3.45259942677187   -1.31653290308403    0.09355942613414
O           1.29286054120384   -0.99579839319659    1.29452393510532
H           1.59696852066322   -1.77246668658435    1.76798749233722
H           0.29602468823604   -0.98130495678361    1.38813777982850
O           1.03432004871535    1.62514598451016   -1.53668729707522
H           0.06512739902730    1.67295360351585   -1.48743804863936
H           1.31093350221027    1.90986854125244   -0.63174779077081
O           1.04600677340255    1.83470886623560    1.09591670415719
H           1.36610334106028    1.00651077963706    1.47167660255384
H           0.09858934705776    1.69897772935714    0.93106192784826
O           1.19475546992055   -0.85103968971845   -1.27991788433392
H           0.16005045712271   -1.09600819984391   -1.31156328779032
H           1.21967851281540    0.20415795436427   -1.48545469139801
H           1.41955293242258   -0.94977813191526   -0.29996595362375
