    19
        -40.92135396
S          -0.44088405639326    1.42886672129462    0.44848350499152
O          -1.03774487249757    0.67112497623093    1.54897056678197
O           0.93981021601505    1.03443673173413    0.21718167535809
O          -1.25485220321039    1.38278768281851   -0.74626825043060
O          -0.38923292686479    2.93324365742421    0.92229056210229
H          -1.30944188109378    3.17479130196115    0.96188654908882
O           1.24243816871645   -0.22410713895319   -2.14122031419299
H           1.26364998803604    0.29597671369005   -1.31424297926155
H           1.20002330998748    0.41227623930772   -2.85705044109762
O          -1.13457553428338   -1.14030313218486   -1.43937289100743
H          -1.39631608081228   -0.20054639069873   -1.29243524405589
H          -0.23458730667914   -1.06049320396880   -1.83704331283402
O           1.67082851545149   -1.27545814176003    1.27993331557072
H           1.97253989060552   -1.13845597322901    2.17986014245471
H           1.55762393889503   -0.38196957017496    0.88310255098340
O          -0.81710193217408   -1.73395225738955    0.94162413052872
H          -0.98526974774783   -1.61328828820331   -0.13260078078292
H           0.19054119962687   -1.78057573594483    1.07719667984965
H          -1.03744867565382   -0.78435421200658    1.29970453599137
