    19
        -40.91966070
S          -0.18073386847236   -1.68937091027047    0.21404332731675
O           0.51248802941902   -1.36597951021580    1.47069753152382
O          -1.57126559133906   -1.26566195342251    0.26918397855436
O           0.52627319988456   -1.17557205784168   -0.93274888577110
O          -0.17902137892356   -3.26016161639454    0.11056600337473
H          -0.66798957697033   -3.52564572840209    0.88339273086807
O          -0.30689062382417    1.21763543372375   -2.01715308208509
H          -0.22028425590382    0.25670487295209   -1.90440282422217
H          -0.96131266847170    1.49831421405920   -1.36717988426602
O           2.05395071857828    1.07659970918759   -0.84393403864371
H           2.01937750235133    0.11669797514628   -0.98761333747776
H           1.32323095557656    1.40859108003383   -1.42094666492975
O          -1.54891057902111    1.28026880844838    0.54579129589864
H          -1.64839878607018    0.29257760109705    0.41508916355579
H          -2.27254229296169    1.55118713192717    1.11393962692073
O           0.88948522553864    1.06996485204625    1.36257474186553
H           1.47604748009094    1.15991757591378    0.46610821054722
H          -0.05181950501603    1.33362504479477    1.10738345156759
H           0.80831601553244    0.02030747721940    1.51520863540473
