    19
        -40.92267741
S          -0.70121722046549   -0.78199177352483   -0.16969198582882
O          -0.92583112805771    0.66284779323557   -0.42430035249511
O           0.18248459007201   -1.32910198330231   -1.18848543217660
O          -0.21126847838288   -0.99058223861053    1.17391287473682
O          -2.09261741028783   -1.46381964836714   -0.28869773776829
H          -2.33549116816932   -1.30677796482177   -1.22816732245664
O           0.48173401372773    0.96519486476923    2.75571819096676
H           0.20739226661753    0.12545002897602    2.31106970892252
H          -0.29768025826512    1.30147626293661    3.20233605526077
O          -1.88586292222570   -0.62185327453521   -2.76445356887089
H          -0.99195105169667   -0.97279364276280   -2.62436941296090
H          -1.83718119315267    0.30935269329429   -2.52495280358565
O           2.36725950403087   -0.28961998794581   -0.18012179299951
H           1.65571504440627   -0.75213211184905   -0.68399785539550
H           2.49838781247747   -0.81459736761302    0.61437576917987
O           1.07032281602781    1.80685724749382    0.43211565826631
H           1.74610236111027    1.07847912139228    0.15652958859340
H           0.15291214073232    1.41996750455737   -0.00278648227055
H           0.91679027150597    1.65364447667903    1.43396688088175
