    19
        -40.91989997
S          -0.93613313443362    0.38413223288553    1.01626630677233
O          -0.88433832710237    1.54747496525980    1.84878037704460
O          -1.02961472251473    0.69139243505148   -0.40184539858287
O           0.21633724681730   -0.52583555103853    1.25427996808006
O          -2.20572928754553   -0.46865198954141    1.38554613319885
H          -2.23737943954719   -1.16621795685702    0.72438278120076
O           0.90998562091248    2.60000688591929    0.16309016021151
H           0.30803733482711    2.77175996541566   -0.56800520369743
H           0.32436693554963    2.38071698275283    0.91954730761175
O          -0.72843302097202   -2.42529672842548   -0.27131714520306
H          -0.29226114178608   -1.82465465730216    0.36918672533758
H          -0.63833482256501   -3.31352572792195    0.07905212174449
O           0.50810616738942   -0.59088610230550   -2.04362874457461
H           0.26858797490758   -1.49898756935103   -1.80846151965843
H          -0.21689026967259   -0.05438379255657   -1.64022316316613
O           1.99309096168146    0.32789748670723   -0.24454836525968
H           1.52878780955463   -0.05530491725718   -1.11603418752766
H           1.72275613351676    1.31796989627274   -0.16263211546871
H           1.38905797097165   -0.09760583769481    0.49656395192466
