    19
        -40.91873556
S           1.04675178952844   -1.14055466892950   -0.72910133861094
O          -0.38589409243036   -1.29806603615564   -0.90809730156513
O           1.51149635449078    0.12912707365530   -1.27005736979585
O           1.43971804431115   -1.33785916466809    0.66060553231406
O           1.77226744376181   -2.26843985879812   -1.55588479245372
H           1.73053685458259   -1.94097781351164   -2.44886849124954
O          -2.09743087578006   -0.62171310979719    1.04228811735140
H          -2.33371052378698    0.12984877055086    0.45162043773539
H          -1.67068966152690   -1.24626567474580    0.42393228524530
O          -1.75676320593770    1.09598866897661   -0.94382276161141
H          -1.26364300490665    0.31448251824155   -1.24514244445060
H          -1.09454538747026    1.75734300776666   -0.71718295028543
O           0.67741562987224    1.97716676032305    0.29875212362480
H           1.04368276149981    1.31744574318441   -0.35898286469082
H           1.38158065869583    2.60533636421359    0.46996807007571
O           0.03846405986090    0.18356864163775    2.02781057796884
H           0.23407070413976    1.01797127749354    1.48669763179178
H          -0.94834452075472   -0.15043173025788    1.72835419855648
H           0.67503698185043   -0.52397075918016    1.58711135004914
