    19
        -40.91793127
S          -0.06953989994332   -0.29894591603848    1.73090652908170
O          -1.32881689375593   -0.05516743773260    1.00860490329037
O           0.09396978963591   -1.69351211220043    2.07120306926739
O           1.05871755076316    0.26366795004502    1.01797416461854
O          -0.19138422388393    0.50962795681031    3.08422184819047
H          -0.83577201653273    0.02593072613477    3.59393079369079
O           1.03802306809866   -2.15160581104832   -0.32949153144171
H           1.66077410237358   -1.41719236983067   -0.27291787557639
H           0.72743047574448   -2.26119639760000    0.59775645078609
O           0.62633826008849    2.32130656675813   -0.53202836650761
H           1.48595960670941    2.73805997093218   -0.61651459076239
H           0.74318994982978    1.59692874466478    0.12787192706023
O          -0.41135824438602    0.99326368080688   -2.53091935339882
H           0.01442239751838    1.54006604338965   -1.81496757619919
H          -1.18021706514836    1.48788935471631   -2.82165736372249
O          -1.08235107308184   -1.07293526628636   -1.21712802721410
H          -1.30680556187465   -0.63628733550736   -0.26383510889334
H          -0.81400944269845   -0.27716874529903   -1.82227980217945
H          -0.22857077945781   -1.61272959271592   -1.01073011009117
