    19
        -40.91892670
S          -0.50925901032458    0.57354088002373   -1.21206947091415
O          -1.82706892620569    0.01015040739973   -1.41185528158095
O          -0.37404297109323    1.38503268024097   -0.02789654575189
O           0.53235554455230   -0.46969913189371   -1.25929688394080
O          -0.21506160936268    1.51575645799071   -2.44744978903764
H          -0.56275524456286    1.04128517654727   -3.19688894611062
O          -2.17270512283503   -1.42805317735140    0.72414975947302
H          -2.72333387890149   -2.17744390059355    0.48686101102010
H          -2.16092402173983   -0.82930358332898   -0.06597049493200
O           0.97902259861929    0.45619504961860    2.17836435013543
H           1.74484615044783    0.76233807696674    1.64166309750095
H           0.24642438679096    1.00045578533702    1.84849271443206
O           2.32462483532577    1.29265571380516    0.02673784440014
H           2.44140211574241    0.57743540891345   -0.60542094031352
H           1.42286592638606    1.61797741712318   -0.13280053794836
O           0.35272480941825   -1.61927947464408    0.93128981245383
H           0.51794551128216   -1.22821610347356   -0.03135986100068
H           0.65179404985913   -0.82136252532251    1.57213281654195
H          -0.66885514341912   -1.65946514728170    0.98131734559297
