    19
        -40.91274152
S          -0.17563020293001    0.81348976779898    1.00965911586436
O          -1.27042018642988    0.54605124816197    0.05592204120080
O          -0.12645539077691   -0.23796752453011    2.00754103963664
O           1.08329262477597    1.03777002620560    0.34244904748937
O          -0.55170467427475    2.14722385441074    1.74771413384856
H          -1.38620089457871    1.98301447125810    2.17765737924096
O           1.63871419754072   -0.48198472334180   -1.71033045497700
H           2.40482466311005   -1.00410862913879   -1.46162493380234
H           1.53313736941251    0.20884025936454   -1.01127543057748
O          -0.39545223236453    2.88321644624803   -1.19144453239591
H           0.42134762547368    2.65407875935254   -0.73890531254631
H          -1.01212805167198    2.18060728349479   -0.96387585923735
O           0.06016914402541   -2.57372687178751    0.92658706167326
H          -0.52135745845187   -3.16339265935202    1.41119138234745
H           0.07095125363079   -1.71610399604729    1.43411081673156
O          -0.63322445612351   -1.46719359867773   -1.23547898827571
H          -0.39812119603923   -2.06881782368607   -0.42994870844668
H          -1.02392190071278   -0.60055930169091   -0.77100808934520
H           0.28217977636716   -1.14043701803302   -1.59893971842895
