    19
        -40.92136404
S           0.63852308651046   -0.40113747623988   -1.16326726513747
O          -0.33636122543802    0.66068812249374   -1.05449109322484
O           1.97000114440133    0.04640187736889   -1.48872498922660
O           0.61407826350758   -1.25963308589091    0.03416817356745
O           0.15847508960891   -1.33859121311610   -2.35151074596293
H           0.96573068274858   -1.70787383325512   -2.69820167272434
O           1.80458730016875    1.90644744066226    0.37097621175953
H           1.20025164123653    2.52292916429696   -0.05195487409590
H           2.05081316290306    1.26276750658071   -0.33157157771692
O          -1.76904154875745    0.84213118132457    1.13199399364944
H          -1.41401633310542    0.99777969842913    0.22700711230039
H          -2.15067146283203   -0.06046577023283    1.05816224486318
O          -2.02980780083573   -1.66387775306905    0.26411382016511
H          -1.05771049722543   -1.69477747703840    0.18466879323394
H          -2.37141294855053   -1.75012306639085   -0.62754879802881
O           0.52145829742587    0.36196297815806    1.94595186481975
H          -0.52151252701614    0.63206569014201    1.75309871997355
H           0.63737303796592   -0.43648112348662    1.31030678423738
H           1.08924262728546    1.07978710926183    1.48682329754744
