    19
        -40.92246925
S           0.32244741538016    0.98146839267757    0.27846799488418
O          -0.89823044992902    0.60058200143668   -0.55544415560933
O           0.05100376260996    0.69391096752139    1.66765866462133
O           1.50519155562051    0.37166776704414   -0.24954735053903
O           0.40489398327539    2.51020447048691    0.07690098870861
H          -0.41133932640248    2.85355109262698    0.51969371698290
O          -1.82428656093001    2.60572415119151    1.41201011641833
H          -2.47764172671063    2.17907750752571    0.85054855613578
H          -1.37445987691979    1.89666253702928    1.89978242739524
O           1.50081210134244   -1.49562417190785   -2.18449446817441
H           1.68046533290495   -0.81563107727481   -1.50775997974074
H           1.63659508484956   -1.07555464804472   -3.03542646887613
O           0.46842377917333   -1.95522288360532    1.35365183248912
H           0.30091819034928   -1.05721903671793    1.68730465135958
H           1.40596534185544   -1.98910352173768    1.14769428375974
O          -0.82414082727266   -1.82999825003321   -0.95480177244435
H          -0.05020846025859   -1.89360718855664   -1.56323088597307
H          -0.47485580956315   -2.10453503326002   -0.07236798948247
H          -0.94155351937160   -0.47635307640681   -0.77064016191560
