    19
        -40.91814194
S          -0.01227339920492    1.43267254119742    1.02863066079964
O           0.95177412555273    0.38088865788488    1.37709544749266
O           0.59456981823612    2.56263032597056    0.38619076017242
O          -1.15586199548079    0.86020226377086    0.32570931435273
O          -0.59349489786344    1.95206755205226    2.41464155278391
H          -0.03896861811271    2.70091009654309    2.61150572876148
O           0.29154903033862    1.14901392684087   -1.89702425550683
H          -0.49185305672311    1.02493763579644   -1.33623646446504
H           0.77273609386780    1.84931692829549   -1.43422420733832
O          -1.78614684954172   -1.65042576698728    0.44229355011293
H          -1.68266686382942   -0.66582325333326    0.37029617039255
H          -2.26288610549575   -1.81132370538065    1.25863084904550
O           1.26791206006334   -1.27962727160497   -1.99717843057180
H           1.00170214706215   -0.32110772074843   -2.02129889652239
H           0.74338036283049   -1.72071690025717   -2.66852489484122
O           0.74581593442332   -1.87179640040972    0.41174384895617
H           0.90595887074225   -0.92024840959597    0.88012226189274
H          -0.27434112405871   -1.95560452579663    0.41969850502161
H           1.02309446720139   -1.71596595422509   -0.57207150053158
