    19
        -40.91898888
S           1.01984469628631    0.19805574271429    0.35790963839193
O           0.30229348218029   -0.95543619164474    0.91899604671398
O           0.97802978207284    0.18073105784349   -1.08940812345460
O           0.48901787926349    1.45108574122559    0.90026821103894
O           2.49556503597386    0.11022144315423    0.83765826695811
H           2.74109445602324   -0.82637791427945    0.68228860130647
O           2.40462697464781   -2.51291649739692    0.60963035282428
H           2.58533069367877   -3.01095673494293    1.41038898652683
H           1.47962310988520   -2.20410413717468    0.67378002561856
O          -0.85937897536293    1.44085572081686   -2.39187065200413
H          -1.30719126183737    0.76298947275367   -2.90318152997487
H          -0.05069556699731    1.00459999081636   -2.00931445811190
O          -2.23155355969019   -0.54886634419224    0.53934987144337
H          -1.27591228683440   -0.79828738540793    0.66011668162326
H          -2.66319261408607   -0.74624290940947    1.37329246857772
O          -1.73487104335831    1.86785484315941   -0.06772854436199
H          -2.11045690167039    0.94463164492211    0.17162234225297
H          -0.77114420466358    1.82759498760881    0.40249139576360
H          -1.49102968551106    1.81456744943712   -1.07628958113948
