    19
        -40.91899939
S          -0.36979282389687    0.25915590943225   -1.13035624392384
O           0.96069436981666   -0.28214871997090   -1.31200048211734
O          -1.40172315519214   -0.75229116208971   -1.11601629598967
O          -0.41504669762786    1.06391608466116    0.12727099555794
O          -0.69022422314448    1.24721204590118   -2.28416790073188
H          -0.08387096367403    1.99920535012811   -2.11825391583403
O          -1.58096127399386   -2.19743014019708    1.01111414301583
H          -2.50566258567985   -2.20502948507689    1.26682062782959
H          -1.54793617040588   -1.75445840541757    0.11879961416455
O           2.07450242027030   -1.34338926024767    0.75445099068524
H           2.09742473480098   -2.28534824797891    0.57117966368980
H           1.78506505216327   -0.90688444527951   -0.09434880399582
O           0.74623243554028    3.10628310939622   -1.09345143498399
H           0.46767564608144    2.48544581462652   -0.39466152372996
H           0.30124837367233    3.93877987762373   -0.91859438589628
O           0.03797369383795   -0.50970343901646    1.97536724362123
H          -0.17638746211134    0.25584049091457    1.26229060982472
H          -0.64905743266727   -1.24267555953883    1.74337352433911
H           0.94984604220863   -0.87647981787191    1.63118356447711
