    19
        -40.92136403
S          -0.17053624312710   -0.75173626500500   -1.15264425089126
O          -1.48100478858751   -1.04716547151175   -1.67624281067052
O           0.14446701827036    0.68653790057326   -1.21306501732234
O           0.07366788154342   -1.27662127207751    0.17193811522481
O           0.88421336036297   -1.44459883710289   -2.11637504754112
H           0.45148711725925   -1.45910171626320   -2.96538717442260
O          -2.56960980021779   -0.27384991523398    0.59537637157353
H          -2.34324770851465   -0.56619940154250   -0.31668645254720
H          -2.33239635506269   -1.01214911602995    1.16338553693800
O           0.89006398686411    0.35942433988545    2.04806199054012
H           0.63032915166180   -0.45603158800570    1.56109210889288
H           1.69619859464028    0.64743200442621    1.56537365698410
O           2.54568985866657    0.69294280255022   -0.01292444954923
H           1.75661983488196    0.77605998392565   -0.58101755693445
H           2.99836722363577   -0.10107451247564   -0.30247843006959
O          -0.88677401420092    1.62435754953815    0.87324143777202
H          -0.12752709844022    1.18126553177021    1.52642422052041
H          -0.47913906380795    1.44242282888254   -0.05150973799808
H          -1.68086894583341    0.97808517369515    0.88343750950168
