    19
        -40.92136398
S          -1.05621501165963    0.89703393812008   -0.05400642704599
O          -1.16903925496055    1.98939017812228    0.88038965694221
O           0.11485968359637    1.03582304358689   -0.93771788242319
O          -1.08751038890950   -0.41325598884486    0.55564396134980
O          -2.31313741304677    0.97837113972409   -1.02059009277697
H          -2.53325796548780    1.90538722448727   -1.04021297309881
O           0.65923361829668    0.87412285508798    2.41520705908702
H           0.15440264408734    0.14494630579881    2.78607315259937
H          -0.00330094607409    1.44093935293341    1.95852889247355
O           0.85613079630592   -2.09438454372775    0.04186324424283
H           0.01724296659766   -1.70417567967908    0.37832455526446
H           0.71718328674847   -2.09067094680684   -0.93090101694625
O          -0.06171393698300   -1.26068547909836   -2.31731122895469
H          -0.99501445050946   -1.41745623145351   -2.47021622569391
H           0.00653164571312   -0.34903294717511   -1.97604716720311
O           2.00467944311881    0.07183252623677    0.40114276296938
H           1.64387378974700    0.38105706308552    1.30844090901389
H           1.65829756751785   -0.95802197953839    0.27318478635661
H           1.38675394590696    0.56878017914609   -0.25179595615914
