    19
        -40.92158870
S          -0.08348256791373    0.44039994782392    1.40693341496126
O           1.22375143709318    0.11495413979846    0.82087288524651
O          -0.22176519902632    1.84300684398301    1.68966858834341
O          -1.15841721213414   -0.13951635675483    0.61624720229785
O          -0.14125473190573   -0.32202126938817    2.79489799627635
H           0.32217174435697    0.25215237618870    3.39699696202218
O          -0.67736502249508    0.52408420295298   -1.92286928824201
H          -1.18079405252620    0.35519272761315   -1.10212877362328
H          -0.21313846534648    1.37404928136607   -1.73449996286969
O           0.65789291925689    2.47387740077492   -0.74281397520348
H           0.27793041056577    2.42506738250928    0.15629655089094
H           1.59120393248840    2.27641295275626   -0.63509905897279
O          -0.78450561475559   -2.61824312749853   -0.13942394929191
H          -1.57237013758707   -2.92800184355523   -0.59075007789800
H          -1.03052840230657   -1.77776778649252    0.31419560762139
O           1.00826745848260   -1.19001648567803   -1.27343307941814
H           1.23918033625692   -0.67696245667018   -0.38101021963043
H           0.40479635709983   -1.93761710498621   -0.94453201333346
H           0.33842683048478   -0.48905082471034   -1.72954880918256
