    19
        -40.92267746
S          -0.55561227974020    0.88338448817943   -0.21218754666413
O          -1.21808911130818    0.75100204318218    1.07692747245456
O           0.91512569264291    0.79930995561823   -0.03051235096092
O          -1.00426295961554   -0.09116075876957   -1.18044553889665
O          -0.84033555637906    2.30035539766680   -0.78338530142897
H          -0.54238955987908    2.89423457676219   -0.05894159996165
O           1.42467256314947   -1.59118419104748    0.19425414447059
H           1.32713707946301   -0.50990527992152    0.13307360560335
H           0.57534005022151   -1.83999476909397    0.72240352534668
O           0.13500765998115    3.03404016527866    1.53866936879784
H           0.99939950665718    2.63564693544847    1.39443791336871
H          -0.44436867442583    2.30505307737874    1.81261430510204
O          -0.87259883668159   -1.84172996808272    1.24988939653559
H          -1.48251954570078   -2.17583040261349    0.58634526508588
H          -1.08876215421642   -0.88341993545400    1.34356670163830
O           0.55314750831760   -1.93774691388897   -2.16675111064514
H           1.03621502750382   -1.57762833862948   -2.91307936366693
H           1.22553581488097   -1.88149197951121   -0.76842689906603
H          -0.14264222487187   -1.27293410250516   -1.93845200711451
