    19
        -40.91873546
S           1.24246635643614    0.08226917881215   -1.17426638016970
O           1.35843544950618   -1.27706757967571   -0.66492335006315
O          -0.12016736067671    0.37936912126600   -1.57994572612220
O           1.75514627944341    1.07854171014303   -0.24203758452950
O           2.16262873195007    0.15939754788305   -2.45076200884873
H           1.98545728671523   -0.66492262411901   -2.89303834691493
O          -2.02205994259437   -1.03184383400409   -0.16434434017551
H          -1.52331496610395   -1.48487154369807    0.52368249752234
H          -1.37653325365111   -0.79334053629727   -0.85074889056886
O           0.20380969454244   -1.33376844979798    1.62317827037488
H           0.74646370331111   -1.81191392174753    2.25299712028208
H           0.67630849647539   -1.39453395447527    0.74277206419743
O          -1.82068660670168    1.59472481614098    0.09917356895859
H          -1.29598681272967    1.52247637668171   -0.72187374032583
H          -2.26468845689407    0.71677305326584    0.14215074336163
O           0.11805211289729    1.23701594487370    1.61357489786742
H           0.07593731932598    0.24164178511228    1.79927860867519
H           0.87651979086484    1.29882704325913    0.89200106820087
H          -0.77778781211597    1.48122588637734    1.05313154827760
