    19
        -40.92267740
S          -0.32383157240718    0.94267347738638    0.37483923730999
O          -0.79683262380248   -0.38792379396296    0.83198853151417
O           1.02232895041108    1.18322037073474    0.87305367993160
O          -0.42142572840037    1.04981699768221   -1.06307261692110
O          -1.28950111933741    1.98465524031714    1.00482085675110
H          -1.13740470923279    1.87164063587677    1.96936353838597
O          -0.27248287480534    1.04011332375454    3.23079538158866
H           0.53026007593001    1.12616194662451    2.69195349426292
H          -0.58288188152252    0.14006277575600    3.08872755732360
O           2.19580837729797   -0.39810445281980   -0.85744198519955
H           2.10925182999715    0.09403536174214   -1.67855775478166
H           1.92255088018571    0.22983494193792   -0.14692791081262
O           0.25044285331134   -2.02163757314434   -0.67092310269687
H           1.14757342071444   -1.52485317938832   -0.77265055048124
H          -0.25104631470699   -1.40412649213892    0.07041246958964
O          -1.01945232193475   -0.96952881215298   -2.60336371854388
H          -0.26820065058678   -1.79771258360811   -1.52623525528025
H          -1.97336378323806   -1.05652849639163   -2.65355557855468
H          -0.84179281787210   -0.10179969820705   -2.16322628338458
