    19
        -40.91892668
S          -0.26547561013070   -1.05809055644994    0.93224983463165
O           0.60893544608126   -2.15333925064010    0.57183357261101
O           0.50549081178737    0.12825280917457    1.34949729536643
O          -1.24277938851251   -0.71228153329488   -0.06979084283045
O          -1.06880031936090   -1.50917478253237    2.21736975784631
H          -0.42794841563670   -1.97196599650220    2.74925497030209
O           1.77454033689008   -1.27949573825715   -1.57922684910252
H           1.30575039865416   -1.72361731806521   -0.82686948167102
H           2.65629950273518   -1.65734290855193   -1.60848488347293
O          -0.96840887421850    1.56148669553218   -1.59401314241104
H          -1.27807101541812    0.64242927972412   -1.56338295808386
H          -1.36558077880942    1.95910521930724   -0.78625611966664
O          -1.78467129015214    1.73103952968028    0.94435271929849
H          -1.03615815156797    1.79205943291339    1.54498864566467
H          -1.86509923272682    0.78296159770174    0.74593019242935
O           1.34790536344062    1.09274715186447   -0.77470167931212
H           0.42164993311211    1.38472882233041   -1.21418499054885
H           1.06730457808495    0.77613838152180    0.18872061264683
H           1.61511669573712    0.21435916446392   -1.22728664366232
