    19
        -40.92079121
S          -0.05719974733343    1.16646297736991    0.91765789730995
O          -0.14056617943689    1.51395879464832   -0.50230708024798
O          -0.57723056457895   -0.17199581664602    1.16062946400114
O           1.25266184766303    1.40158562201249    1.46824072971602
O          -1.06025273780822    2.13819591273111    1.66254578096802
H          -0.63153088992709    2.98617449716765    1.60210734642802
O          -2.62973138936589   -0.86664920939724   -0.31700687508743
H          -2.89970927064188   -1.75047874630454   -0.05951979213687
H          -2.00342885813261   -0.55061123089269    0.37639483247576
O          -0.69843304095759   -0.42409788063533   -1.93728570588181
H          -1.58961399448866   -0.65018689687038   -1.50723641693669
H          -0.45005963311585    0.48180110700194   -1.45884110444862
O           2.78573338727683   -0.06021644052598   -0.11235698111504
H           2.27818041117927    0.56343197075490    0.45092296546199
H           3.61226390782456   -0.22202459893735    0.34647506182988
O           0.80633028958398   -1.76392216292940   -0.46980190918794
H          -0.00940316279548   -1.09174279097732   -1.47165530929535
H           1.66935537478020   -1.28708732356219   -0.46615800250544
H           0.34263422028112   -1.41259778400625    0.31719509864929
