    19
        -40.91899947
S          -0.17358675043292    0.75844837650873    0.93559073788090
O          -0.46285249890854    1.88436113799207    0.07725285727874
O          -1.27154647951198   -0.17960082055747    1.03970827439409
O           1.05049069172597    0.04584591688454    0.46118544558569
O           0.17082561946884    1.31245454386605    2.34437528338180
H           0.54182706137708    0.53562826046463    2.81295196014899
O          -0.45703130410197    1.44243677328702   -2.46235024343025
H          -0.56294655695854    1.70348526537577   -1.50626464296161
H           0.08037718897078    2.12819851347060   -2.86404704391956
O           1.48639552561196   -0.90215267538388    2.89454305371489
H           1.47543749044658   -0.82364005280969    1.92239080548345
H           2.39972752774795   -0.79732776849296    3.17126478574375
O          -1.59940717657116   -1.80170477360688   -0.93475658330318
H          -1.54053764987981   -1.28043278338391   -0.08641190648914
H          -2.40725894650082   -1.51278203137257   -1.36532469695136
O           0.53440693150121   -0.78980048204806   -1.80430929167693
H          -0.32029250293680   -1.33438749674905   -1.56496096846748
H           0.18499410772782    0.08246465743762   -2.22872080282938
H           0.87097771121980   -0.47149455088481   -0.84211702358837
