    19
        -40.91873537
S          -0.47760208187722    1.30757700065115   -0.99501413788986
O           0.80043101373627    0.66769538977970   -1.25367216068134
O          -1.57916182986529    0.36526979894556   -1.13485363839774
O          -0.48447589102648    1.99488904591409    0.29023666786593
O          -0.70074652869883    2.41914775284782   -2.08915781700686
H          -0.96758347065711    1.91858923402730   -2.85380887150083
O           2.27990079725374   -0.30762847872141    0.75784220032507
H           2.02245319420417   -1.18894283077085    0.40187590787214
H           2.10575284485504    0.28237663170519   -0.00134564824469
O          -1.48148284688142   -1.22469929656501    0.87354845235240
H          -2.36003208562730   -1.34686562871801    1.23819902273603
H          -1.59165271477610   -0.64539889280089    0.06457822315887
O           0.82467951027448   -2.02223918437064   -0.63928105665138
H          -0.02417008001757   -2.18022339925247   -0.21283921612192
H           0.72415325787450   -1.19418086350103   -1.13824515788912
O           0.22370714028279    0.34014149194379    1.99576341494012
H           1.18256358552709    0.04494908185628    1.58373011735987
H          -0.05924990925497    1.14745176894771    1.38928970766895
H          -0.43748391532609   -0.37790864191828    1.72315398010416
