    19
        -40.92267746
S           0.46174740757502   -0.95824604794899   -0.04667547874009
O          -0.84893567362297   -1.57483746663860    0.09519627948621
O           0.42644115175946    0.04891247333568   -1.13650195878034
O           0.94158351013992   -0.36287412209566    1.17972303096942
O           1.48403810872054   -2.04080324383854   -0.49156731538974
H           1.07060345761512   -2.41483565334655   -1.30118857839345
O          -0.61159967929301    2.04918696423047   -0.16418372219244
H          -1.28586531216598    1.54868024051993    0.43327662070510
H          -0.16425497652054    1.22480351928858   -0.71495083234263
O          -0.27376082531705   -2.39206909983070   -2.40677057524300
H          -0.86275709120509   -2.31813840428521   -1.63886522838416
H          -0.19314419044363   -1.49878611748246   -2.75641632041777
O          -1.93519567331219    0.47068543061293    1.32304849411724
H          -1.68842333231499   -0.37710422144059    0.88226594458480
H          -1.51748286344554    0.43841764585337    2.18812327407319
O           1.33929256018783    2.20080109018844    1.45621232779995
H           0.14558675396072    2.32180143067620    0.47065219593764
H           1.29775761791460    1.21352625464986    1.49763773376533
H           2.21436905976749    2.42087932755168    1.13098409844510
