    19
        -40.92267752
S           0.78579707623661    0.15308992494885   -0.70242609935669
O           0.94934883694756   -0.23876276453050    0.71974408299219
O           0.29193763694837   -0.98008985825423   -1.47071816277187
O          -0.05807457958180    1.32109912906094   -0.81357910142242
O           2.20427630504001    0.53002631856572   -1.21332127943834
H           2.69822440206264   -0.31640060346665   -1.13716105540861
O          -2.17404920695674   -0.79197971557737   -0.60339017409389
H          -1.30824148264118   -1.00100127417829   -1.02868870407402
H          -2.48810427899694    0.00275022741868   -1.04352091435517
O          -1.35639705684824    2.33354412566058    1.21045851470017
H          -0.77699133814760    2.92741294991240    1.69176248446176
H          -0.89066594169655    2.11368880209629    0.36605248356654
O           2.66298899090188   -2.00078703962359   -0.69754641107755
H           2.46548488531873   -1.92553694433625    0.24171648562766
H           1.80114548874107   -2.06598404535880   -1.13906147707561
O          -1.30141592040335   -0.15923606757375    1.69658861371330
H          -1.80027323505744   -0.50243671777683    0.86205373622274
H          -0.26656346889959   -0.25590473603805    1.37956138484076
H          -1.43842710296649    0.85650827905071    1.68147559294799
