    19
        -40.91955064
S           0.64226797940823    0.16225676385563   -0.96152323508749
O           1.07793173304554    0.89275437438478    0.20635462232474
O           0.57177650573680   -1.33365785790319   -0.60261700019612
O          -0.58127039099213    0.60504402379078   -1.54261750496242
O           1.76606732423322    0.18033906507704   -2.01707687713940
H           2.56998403611216   -0.09249263859749   -1.50689105075798
O           3.34026406916001   -0.52656669218598   -0.07658456854710
H           3.07812263103557   -1.41820407253436    0.16903126083265
H           2.75162430549579    0.07693752800349    0.40541840995653
O          -2.65904600696930    0.46176342261019    0.22246526592190
H          -2.15790992087492    0.66498134358696   -0.58326266944857
H          -2.23603932429442    1.00141958300752    0.91995187689315
O          -0.93279351103664    1.88706109604194    1.73970651112279
H          -0.89054060412762    2.84248067607017    1.66856655238328
H          -0.14969076201392    1.54298775730437    1.27443262891504
O          -1.62549071974505   -1.88625735110091    0.46557653615004
H          -2.11250151693926   -1.00090817369004    0.46576483072807
H          -2.12730265903764   -2.46769347767095   -0.11062584081070
H          -0.32545315819652   -1.59224535004935   -0.13606977828163
