    19
        -40.91966029
S          -1.68086189155064    0.29359464864891    0.13953886372077
O          -1.59929701766765   -0.13732059598846   -1.24756291624254
O          -1.56587980288848   -0.85625216469697    1.04966644617041
O          -0.73664639372194    1.33204484439244    0.47002622247966
O          -3.12654290012591    0.87703002529450    0.35791216727022
H          -3.68973006591571    0.15526239188754    0.09614712436236
O           1.61808171929120    1.44884312364784   -0.95851158074300
H           1.56315055637731    0.63764447435866   -1.47659812575390
H           0.70545587516225    1.65745410960838   -0.69939890232519
O           1.68396137421197    0.82236362121278    1.60554461028085
H           0.81426354129245    1.24762941795961    1.68523051786053
H           1.99303493592315    1.12675268641096    0.71747973907305
O           0.71640823907520   -1.18785696449211   -1.55353936838870
H           0.65789517267241   -1.93267016890003   -2.15498866869160
H          -0.19539052602648   -0.77508274603299   -1.52737185904033
O           0.83003445061120   -1.44497990603097    1.01101801164008
H          -0.21318339667994   -1.27559133780812    1.13087962751409
H           0.94115746016230   -1.45876781787101    0.00682677682122
H           1.28408867993990   -0.53009765143699    1.34770132391214
