    19
        -40.91873372
S          -1.70346451244828   -0.14578983360752   -0.00885181719456
O          -1.30267323638434   -0.91438906612331    1.16129233766290
O          -1.12884276280637    1.18827067875713    0.01505581881006
O          -1.41510124944653   -0.83473363801500   -1.26015934604337
O          -3.27069890979894   -0.00429239096738    0.06373644866339
H          -3.42469590116014    0.21629699237645    0.97692987716913
O           1.16695261528115   -1.53617000253086    0.87064194152997
H           0.20279972478916   -1.34161283080545    1.05675287346782
H           1.30331094868996   -2.45881954557443    1.09392360307765
O           1.28258348236411    1.29378192397564    1.35676040435794
H           0.32702612779690    1.31768896290042    1.18121571129143
H           1.49417937057107    0.37564911824451    1.55537996463372
O           1.17088199635211    1.69890288506215   -1.25771106890527
H           1.55954227840217    1.75913735511329   -0.35518406379912
H           0.21546720517339    1.80565947612264   -1.07989134961503
O           1.04370884053157   -0.76218087317757   -1.57859107759650
H          -0.00051216458641   -0.84739591781895   -1.59376429620895
H           1.20250987211084    0.31070010560076   -1.53796249536125
H           1.27702629456192   -1.12070339952401   -0.65957347594655
