    19
        -40.91873479
S          -0.71025241053407   -0.52500034046784   -1.46581875347475
O          -0.29747681793651    0.86297016532638   -1.34997781861432
O           0.42058675058413   -1.42833550123962   -1.30468241812993
O          -1.81203555677027   -0.83569832326016   -0.56375614738664
O          -1.25939967105323   -0.75282963394493   -2.92482880524044
H          -0.46564832472488   -0.80209605201281   -3.44824964600394
O           1.89802070012921    1.22245553273458    0.28228588091670
H           2.05540082811707    0.35510262335143    0.66994670016335
H           1.35743939598514    1.06784264320582   -0.51056713893463
O          -0.47545770135085    2.15776294207333    0.99064183815090
H          -0.68783368667521    2.00867117377981    0.04859484521074
H           0.50758644946848    2.10083058281764    0.99549547454028
O           1.08410878101599   -1.38302490004418    1.17085825455950
H           1.23889782931800   -2.27566213248115    1.48555840044763
H           0.88621165718767   -1.46090444452707    0.19258682453635
O          -1.10174294312662   -0.13865717366997    1.70758791421259
H          -1.54595575285910   -0.45210837718247    0.81109796890233
H          -0.21397549906100   -0.62759458934962    1.69196384810047
H          -0.87847404771185    0.90627580489287    1.52126280804593
