    19
        -40.91955056
S          -0.39185131503997   -0.75811766822759   -0.79751880027564
O           1.14784110862361   -0.72800616114031   -0.78691358833113
O          -0.85408903126223   -0.98377789727932    0.55260183129895
O          -0.91972248366858    0.39741139640334   -1.44317042382890
O          -0.67658851337620   -2.01401399178595   -1.64552188251824
H          -0.31897372369033   -2.75462040512700   -1.09360849047442
O           0.40263026915774   -3.34440214769202    0.30627189451868
H           1.33361433775398   -3.10493867824812    0.31114157188979
H          -0.06130014796234   -2.65963535175605    0.81523584227338
O          -0.32702382610829    2.68707009022871   -0.07931930386291
H          -0.71964491725880    2.09214696921213   -0.73777758387529
H          -0.70741230978893    2.39760757076740    0.77400452218644
O          -1.42018621335647    1.27558278293059    1.95199932556292
H          -1.21173838767629    0.41678670950292    1.54321024322305
H          -2.36732069311689    1.28026236436832    2.10208336649247
O           1.98667272534323    1.55886733040658   -0.20336926068026
H           1.13774791441146    2.09331433033504   -0.08277248593256
H           1.52931180416047    0.20802565099172   -0.52650767881669
H           2.43803339285645    1.94043708611424   -0.96006909885443
