    19
        -40.91955058
S          -0.17836912341276    1.12044998851789   -0.27654981225087
O           0.62774839009103    0.89526120460856    0.90108227251555
O           0.45948978381845    0.36294161400406   -1.45591419570384
O          -1.55942238996960    0.79342479825174   -0.14811906444615
O          -0.02167374844605    2.58800803545115   -0.72285376184956
H           0.95913201137180    2.72526411348991   -0.73440543812321
O          -1.93086336641486   -1.83412460320751    0.49370142072540
H          -2.12774968936196   -0.89954642199711    0.32206894485268
H          -1.36156371813884   -1.82530862100824    1.28896674775061
O          -0.18635349858374   -1.18017543584630    2.45411405807209
H           0.19781613223147   -0.44374194511123    1.94595213790493
H          -0.49232672788182   -0.80585170446239    3.28223528597346
O           2.53308245679858    2.18991939231359   -0.47991550250769
H           2.21574024805987    1.66267271863175    0.27134427827381
H           2.77312323385347    1.56539192097887   -1.17011754447680
O          -0.30607487913340   -2.02159164858605   -1.49784251202003
H           0.17575351868089   -0.64113764107438   -1.48898147676870
H          -0.93242514960614   -2.07814883588362   -0.70698874665008
H          -0.84506345395882   -2.17370692907006   -2.27777707127130
