    19
        -40.92139830
S           0.24880099037701   -0.67319135773989   -0.97666166713925
O          -0.78664308433997    0.33790587220562   -1.16775594646077
O           1.43917481767723   -0.07229152835346   -0.37747879845851
O          -0.23481492832047   -1.80063074582252   -0.18361375717007
O           0.64212818647196   -1.24713172991465   -2.36793445477755
H           0.95204570590648   -0.45262828580080   -2.84903396544069
O          -2.34536973330459    0.76563722251155    0.86451423733259
H          -1.86881582988856    0.61822013728813    0.00509633193041
H          -2.17168102441219    1.67534123992374    1.11652081133710
O           1.22396208623898    1.29484948910019   -2.74455310351329
H           0.32044018910231    1.43135658375561   -2.42859544957481
H           1.75542870580227    1.20257150125042   -1.94303952260378
O           1.15812212910193    0.25243338794822    2.16952479683131
H           1.33040150961664    0.20219679782530    1.18797931106364
H           1.91937665079053   -0.15242511374054    2.59064068560255
O          -1.01426504005785   -1.03555919565873    2.02847472829969
H          -1.68090774287651   -0.31702796609419    1.69532863776999
H          -0.73617787786219   -1.50866329040708    1.11709604006627
H          -0.15120572001076   -0.52096301828997    2.26349106491003
