    19
        -40.91873995
S          -1.08419438453772   -1.30665019252485    0.22385982902639
O           0.08824691735330   -1.21391955610863    1.07506270718214
O          -1.94506651755996   -0.14127992085948    0.37415514767788
O          -0.71741517463421   -1.55997492823168   -1.16453528934595
O          -1.93941504837956   -2.54530658006007    0.69016077975103
H          -2.46580054406503   -2.18509188915857    1.39698693525783
O          -0.73193016599836    1.83347272026197   -0.72358104193195
H          -1.27051397208994    1.11702979223748   -0.27820064921536
H          -1.34794793760299    2.34209625809524   -1.25422256478178
O           0.90431758019753    1.36919145471899    1.58571050460154
H           0.34467149788594    1.90894100767497    1.01735384386277
H           0.45013392342625    0.51436252954820    1.67486498735943
O           2.41341379590501   -0.25534190534366    0.13999257792191
H           1.84307992583714   -0.94888241938895    0.52423947020574
H           2.21571627588780    0.52069891405515    0.71352992604794
O           0.92409998014483    0.18473845955887   -1.80160013352608
H           1.68136810241103    0.01908292144960   -1.04336663683903
H           0.26794967961618   -0.62334280776962   -1.66695933281462
H           0.36928605620304    0.97017613183935   -1.48345104043766
