    19
        -40.91793150
S          -0.98426266025627   -0.91224191235706   -1.13459306622416
O          -1.90339929891870   -1.81901016582027   -0.48625139196784
O          -1.33127197100194    0.49545962287674   -0.88029999755296
O           0.40655372513657   -1.17116645750077   -0.82409999124117
O          -1.13944997257641   -1.11444080827828   -2.69515806920376
H          -2.08075409945132   -1.09802816947898   -2.84556246342304
O          -0.54460333743541   -1.57871672816231    1.74117896321379
H           0.29570533457308   -1.75213942561807    1.30058266466603
H          -1.21457853695489   -1.83886160315103    1.06911672049973
O           2.09553742477448    0.81264141459338   -1.00975822487385
H           1.42858460493360    0.08575381954997   -1.03535333022710
H           2.94845993973637    0.38776544317526   -1.11841004753072
O           1.45971149760223    1.96802449948098    1.24784986908009
H           1.76740100115563    1.54484313561957    0.39989117104946
H           1.40197101192137    2.90894944985432    1.06989447899534
O          -0.84451152489738    0.93036683665664    1.49127692200270
H           0.09254037477254    1.36988281040527    1.47367627959909
H          -1.12875988305314    0.83463990302852    0.46189527053999
H          -0.72487367006314   -0.05372165487696    1.77412425260261
