    19
        -40.92119189
S          -0.00031242156822    1.23315748893538   -0.61386747859024
O           1.25742008500447    0.48764008762041   -0.55311103593896
O          -0.49054588183018    1.41741574656573   -1.95177776658919
O          -0.96663151618414    0.70642726314908    0.33600656348960
O           0.35313737308226    2.68749089706177   -0.05256172477416
H           0.57094666419286    3.19462428279379   -0.82903516256361
O           1.21130444776996   -1.34305716460771    1.10909253933620
H           0.98458466122386   -0.73511247431982    1.88858012678274
H           1.36135200713698   -0.63422902956434    0.34377848416173
O           0.38353035776490    0.58718346453084    2.57732454422243
H          -0.25831490061257    0.75281322409866    1.84902091275426
H           0.93372773982145    1.37101232059050    2.63013482952557
O          -0.65825808594181   -1.23319259277150   -2.25065406738569
H          -0.58352137661806   -0.26147097152325   -2.19957608956328
H          -0.99135839365363   -1.43351817336505   -3.12755455273583
O          -1.06053445367930   -1.96679078738115    0.28239530058148
H          -1.38105817772690   -1.05796855355814    0.43781487128047
H          -0.94706247577206   -1.99757636222712   -0.68907333358263
H           0.28159434756570   -1.77484864600226    0.81306304959646
