    19
        -40.91833220
S           1.27346181266737    0.84627938525388   -0.79873139773842
O           2.46036167575031    0.05350538580606   -0.59477028851366
O           0.17810172105420    0.13829866895709   -1.43137344726855
O           0.83672566173519    1.50853235727539    0.44049715061073
O           1.66776189397270    2.01701306938827   -1.79019820933028
H           2.51346398792740    2.30675215263037   -1.46177362696168
O           1.03984834283564   -2.08446328826777   -0.01961905266623
H           0.55727977457448   -2.07359304912054   -0.85119922446494
H           1.71361352592933   -1.38037001078094   -0.13217511982463
O          -0.67448673989370   -1.53668684521021    1.88014369045436
H          -0.20497189897357   -1.64591234827404    2.70907111197315
H          -0.02994251207500   -1.79318523228491    1.16295541462005
O          -2.33304115737320    0.60448992571539   -0.99371462231121
H          -2.79720821868733   -0.20366843972271   -1.22154022021663
H          -1.40401642809575    0.49679831534213   -1.32230699259870
O          -1.35108839207747    0.85069629366280    1.33785309578713
H          -0.39881611877934    1.21738244106246    0.99058121249908
H          -1.90208856011145    0.79647517817801    0.47604081314951
H          -1.14495839038316   -0.11834396964559    1.62025973278579
