    19
        -40.91873529
S          -0.80585591395163    0.59673543738452   -1.38701374185339
O           0.60026830172305    0.70611280500249   -1.74969692068483
O          -1.12705497225471   -0.73887574912807   -0.91524664289633
O          -1.22257789048559    1.61810563087449   -0.43428338665402
O          -1.62758083935255    0.86288732275292   -2.70457397991561
H          -1.14029739657974    0.37871754544275   -3.36375310645109
O           1.95207834557253    0.67957496640796    0.42828305205621
H           1.49910237005111    0.70157859578751   -0.46413063113150
H           2.62785990025774    1.35963860924490    0.40347989868676
O          -1.11519008460715   -1.31189488424974    1.70434913946395
H          -0.30142029741648   -1.82600297228192    1.49664744052602
H          -1.53295762263501   -1.21977924288855    0.82597753685456
O           1.00059870213801   -2.02502631176932    0.28117426310547
H           0.37587413268043   -1.71711570526585   -0.39678382069041
H           1.69020913935410   -1.35476385148711    0.33135135782197
O          -0.22735400477339    1.00987873710857    1.75366253696437
H          -0.73186046655654    1.37393832974391    0.90926010400152
H          -0.63236392771655    0.01135680720579    1.87298518227709
H           0.71852254455132    0.89493393011508    1.40831169851924
