    19
        -40.91892671
S           0.93367264799803   -1.06883601682311   -0.20880634996284
O           0.97703993851218   -0.27191816574836    1.03166890012626
O           0.20005223307643   -2.30127499775185   -0.01682817093566
O           0.48594552391987   -0.26828841755896   -1.32135882178781
O           2.43580008964286   -1.46418417488434   -0.50559027654291
H           2.61339622996095   -2.18872124218244    0.08705565766290
O           1.67780822769626    2.00570183829974   -0.48373620938967
H           1.87560431678134    1.72529128942737    0.41462060549821
H           1.52160027413370    1.17948810053924   -0.97115780925554
O          -2.23118076294172   -1.47072029996904    0.37064008387147
H          -1.35560963850942   -1.87160486103413    0.13500131764227
H          -2.66337786916680   -2.09275892157176    0.95995732985963
O          -0.95795928401046    2.03764259445789   -0.91976028507679
H          -0.05131461090767    2.39113032387271   -0.77377529418260
H          -0.80594997634112    1.26890427449318   -1.49209328282719
O          -1.28228537959969    0.73875775396155    1.19284194115642
H          -1.25067799018528    1.37562632077397    0.33831336166971
H          -1.82112829129339   -0.08594339729989    0.91553373733606
H          -0.30143568875535    0.36170798901295    1.24747355509091
