    19
        -40.91103814
S           0.05858408782207    1.49878724233901    0.29487019228317
O          -0.82202558072359    0.90882670587141   -0.73616613685715
O          -0.65836195718090    1.63642068432020    1.54660442180352
O           1.29582103555084    0.76957531440275    0.40924045598898
O           0.40337605399756    2.94015494175128   -0.22209163747111
H          -0.44182006283210    3.37445272257247   -0.29098867318758
O          -1.11796417408693   -0.80028595113100    2.25472232816790
H          -0.89568262104991    0.15895954677743    2.10077817675939
H          -1.94582449008916   -0.80769654234298    2.74077539712376
O           1.49120364763229   -1.65962085048914   -0.43398341462221
H           2.03155158017239   -2.16512467406325    0.17644175296138
H           1.56286630168947   -0.70861678324900   -0.15202537809160
O           0.78875100430778    0.05188030506222   -2.87644458799253
H           1.28635495931452   -0.61216622131994   -2.39328883661905
H           0.20769534692989    0.48088646499345   -2.23588802523887
O          -1.02521433309456   -1.48489606891024   -0.17249441140380
H          -1.04969683991708   -0.48104288661748   -0.52490891731026
H          -0.04283363655885   -1.74598474395068   -0.33357068507977
H          -1.12678032187551   -1.35450922601676    0.84841795879915
