    19
        -40.92267753
S           0.42531885911767    0.37724372820938   -0.90045505622150
O          -0.82663964508523    0.09426908171093   -1.58659073072290
O           0.15595941075752    1.15861653353802    0.33230067179855
O           1.18129643578062   -0.81497905014685   -0.59080474973402
O           1.30307264437173    1.28585906206099   -1.80558154303483
H           0.71049317109578    2.04685457734065   -1.99517712219324
O          -1.57324235358192   -1.79891693054530    0.06515640486397
H          -1.44609630180582   -1.12446307371637   -0.64413454467258
H          -0.96785234160960   -2.51327523276885   -0.15196426381906
O          -0.85112253826166    2.78249906076451   -1.76629859835073
H          -1.24807023185324    1.90710419401994   -1.90096274066159
H          -0.83780166229543    2.91513362701228   -0.81286782566440
O          -0.60506101324074   -0.47160997976237    2.00249733862434
H          -0.30737046088370    0.34590150495674    1.35133926372573
H          -1.13104238177480   -1.06903425075435    1.34732379866504
O           1.66675595570087   -1.59809196553125    1.84999190722904
H           2.44781410246079   -1.14724662954781    2.17669972262707
H           0.28121265388383   -0.96517747785805    2.14969930828424
H           1.62237571722244   -1.41068678898745    0.87982877924142
