    19
        -40.92315428
S          -0.69504520413175   -0.49801424301242    1.46697113904184
O          -1.24962360646490    0.55566653541052    0.61489090104428
O          -0.77847046541508   -1.79241036562787    0.78549788573556
O           0.62562353700220   -0.17317084023818    1.93471044027072
O          -1.63922248257884   -0.62476973873832    2.72084973093885
H          -2.35574452057958   -1.15605361444091    2.38787598555552
O          -1.03587914189494    0.32128966621930   -2.02033522808279
H          -1.35437989656755    0.41142640877427   -1.09533591880872
H          -0.53882637083340    1.12806752715613   -2.19253405548130
O           0.51368955290461   -1.57078156624812   -1.32767682091199
H          -0.09609098757037   -0.88319424819664   -1.79022373714451
H          -0.02703410239308   -1.82186150822068   -0.47032476046808
O           0.64505326763056    2.11153219740347   -0.40801970535399
H          -0.07152044304115    1.63667119138207    0.06890480589192
H           0.90114509196056    2.84148080362231    0.15747838291018
O           2.16151418766116   -0.08647686244477   -0.19058714322120
H           1.82032026166600   -0.20322521301639    0.72524244229349
H           1.33051243142570   -1.00528483378123   -0.93154903014188
H           1.84397889119794    0.80910868399392   -0.43583531405492
