    19
        -40.92267753
S          -0.65503558217895    0.72037020353884   -0.43195874322441
O          -0.95038093108644   -0.13295650926093    0.74599681594199
O           0.28331069960939    1.76791768335848   -0.05736069735055
O          -0.18996054508184   -0.08477870300903   -1.53833797285072
O          -2.00415889500287    1.37389804020489   -0.84185032521137
H          -2.23007794597083    1.92324381353531   -0.05863401861263
O           0.95786526001797   -1.66251165865115    0.95757216630580
H           1.67926671465104   -0.98556355738381    0.66782964449009
H           0.07376655463718   -1.03080463865172    0.98577780040627
O           2.38223724508270    0.19837334745902   -0.02291001613597
H           2.52299951758381    0.02013656650218   -0.95688635150028
H           1.70957042741783    0.92001795692847    0.00654758242482
O          -1.77670730625691    2.46601679954889    1.53248337615238
H          -0.86925638276712    2.56942786539638    1.20403294383738
H          -1.78495012890576    1.62800400616216    2.00622427206504
O           0.36241579223560   -2.62495040198482   -1.31682808226203
H           0.78895568512017   -2.23469644141434    0.12408435434557
H          -0.44319529767596   -3.13402047101547   -1.42559399223922
H           0.14333509857177   -1.69712391125958   -1.58018876657725
