    19
        -40.92453811
S          -0.21389624160040    0.81291149625734   -1.27097417667679
O           0.90037466328094   -0.09285643931725   -1.52515295416991
O          -1.44030562414829    0.06577711366114   -1.01354010223824
O           0.07980601408645    1.77474564431497   -0.22944445070657
O          -0.45014628339862    1.64375960421287   -2.59323191407672
H          -0.65751199141985    0.99409218321074   -3.25863701497211
O           0.32854707339782   -1.04017298496632    1.87933292190581
H          -0.42099164700467   -0.31197710685647    1.93553802309162
H           0.03886709137923   -1.64846652339138    1.07981433073254
O          -1.40525061412195    0.77543556518636    1.65213435673522
H          -2.09947887930982    0.41583634225251    1.08718061081318
H          -0.88051537026233    1.34585784405097    1.03843635117898
O          -0.37461112978266   -2.17299270650702   -0.25825668894442
H          -0.93398333471468   -1.42470328861840   -0.58899194104377
H           0.39971815733974   -2.14748875627378   -0.83265163265530
O           2.15218405479057    0.26255555689258    0.72596757627500
H           1.85433871481951    0.08311369518565   -0.20074606338794
H           1.95104579573933    1.19725177749256    0.85116352691623
H           1.17180955092892   -0.53267900678570    1.52205921122189
