    19
        -40.91893377
S           1.06628376334363   -0.01333850826499   -1.37334575506217
O           1.22276809541885    1.36077276662371   -1.77764711642031
O           1.59874923773735   -0.25722034812847   -0.02389644282994
O          -0.27483246841748   -0.54677832609981   -1.50843917293730
O           1.97604285983854   -0.87514261963647   -2.34830483778736
H           2.70700915416865   -0.29259162281004   -2.53156846284446
O          -0.97423669630599    1.91291310528633   -0.42247352074082
H          -1.50156093066934    1.23725437409179   -0.85921312562131
H          -0.12783031625454    1.91064200883277   -0.91377250010566
O          -0.75164262028410    1.41708880358679    2.14448436507649
H          -0.08742739431008    2.02660595030105    2.47233991277585
H          -0.91055954686426    1.66661326795361    1.19481080749187
O          -1.50647653612036   -2.03094134681341    0.22101507151450
H          -1.13068140031948   -1.49078834194883   -0.52154788748675
H          -1.38245817334721   -2.94965212796642   -0.02431548984054
O           0.12534762461081   -0.93329087405567    1.82602216287869
H          -0.60396321456525   -1.44483810187902    1.31908781513134
H           0.82911296791991   -0.68844939631029    1.05693506641024
H          -0.27364440364664   -0.00885865473262    2.06982913100599
