    19
        -40.91892666
S           0.83461135157869   -0.26097267564808   -1.13655215290327
O           0.63212561412764   -1.65072301142063   -1.48557111479424
O          -0.33502736885655    0.57107798308847   -1.27322854882861
O           1.42436952309185   -0.12689577721982    0.20870581198754
O           1.92208726098242    0.31337377312685   -2.13046299402993
H           2.56126834938551   -0.38791253907830   -2.21529208948686
O           0.60924458152656    2.57444861156878    0.27260549362163
H           1.34667408599598    2.09610204634722    0.66283803309845
H           0.37544253146426    2.06244219604181   -0.51964195437442
O          -1.71759238838765    1.44188424892434    0.93748886806523
H          -1.76780821451524    1.16027742337746    0.01011396805270
H          -0.99697907827564    2.11196831398853    0.92926373316829
O          -1.22053111791797   -2.39991535459709    0.17427962703740
H          -0.58748809933285   -2.16927493294102   -0.55318592168427
H          -1.08283011636092   -3.32984123426316    0.36751370264482
O          -0.46472631072813   -0.56128206070895    1.75684640267734
H           0.41515186158736   -0.37598449085151    1.21119490292895
H          -1.07368712406044    0.28422097625257    1.52943158421791
H          -0.87430533130436   -1.35299348598958    1.25365264860086
