    19
        -40.92267749
S           0.23301261155220    0.64122300569214   -0.81762180994321
O           0.33845403176434    0.98677355144820    0.62190110627439
O           1.31568722596714   -0.25826065289045   -1.18781681900141
O          -1.07476021285221    0.10325270903739   -1.11617010626691
O           0.39704541360915    1.97620143826047   -1.59611878491957
H           1.31222109219344    2.25330871058427   -1.36850845902611
O           2.78030507170986    1.89698483845400   -0.50252194931027
H           2.68858914968152    0.97463281001275   -0.79028417317212
H           2.45260770451218    1.91810510855137    0.40245449715411
O          -2.82773237204609   -0.47227741383799    0.72834499811651
H          -3.31854576767725    0.31999142241332    0.95511061377273
H          -2.30708417151940   -0.25460551398745   -0.08397101352335
O           0.24806836753054   -2.37720061827558   -0.07490235674890
H          -0.48819220668373   -2.57055649613329   -0.66183114401673
H           0.78232388563413   -1.69217743548911   -0.54348431042123
O          -0.59005349334749   -0.93250390204804    1.83882306277247
H          -1.57435557305902   -0.81723878939458    1.57632196476844
H          -0.23211955458250   -1.65736072849451    1.19894219404780
H          -0.13547120236772   -0.03829204392666    1.42133247944180
