    19
        -40.92267753
S          -0.51797372148285   -0.68528125480690    0.62961451527756
O           0.28906060570818   -0.23148750119562    1.75257461888113
O          -1.11315132250861    0.48367624894783   -0.06471523361491
O           0.22158331549316   -1.50649702791372   -0.30170940548335
O          -1.71144436601319   -1.52100830690831    1.17044554335093
H          -2.13552526193429   -0.90983462781736    1.81298509247419
O          -2.11672761212184    0.65061824240416    2.58517734299572
H          -2.24996526448545    1.22018413324589    1.82058403342674
H          -1.15476846476659    0.55879953214011    2.67591904059801
O           0.67203478408203    1.40007490459126   -1.47863575901677
H           1.44452927914506    1.21478547940756   -0.82165401940720
H          -0.18818179529950    1.10709161620629   -0.88232790776453
O           2.30484443034804    0.56972647922937    0.28125653155349
H           2.68527506169265   -0.26064560374716   -0.01826012010244
H           1.64833070326008    0.32082000184551    0.97492459339177
O           0.69490107078828   -0.79023098146960   -2.76542985666287
H           0.55334091271913   -1.23052220066526   -1.89114211083533
H          -0.05404041614645   -1.03178167745648   -3.31387786632481
H           0.72787803153024    0.64151252396499   -2.16572904273902
