    19
        -40.91873098
S           0.33120193861863   -0.72536155009916    1.51370879012569
O           1.36535627589810    0.08668786974274    0.89539226860413
O          -0.86912671785451    0.05715916470759    1.77202558104964
O           0.06050479078498   -1.93341845891420    0.74511010842452
O           0.86564101316021   -1.20875275906336    2.91445195810248
H           0.84689425812218   -0.41427479221629    3.43885861539898
O           0.35152888983318    2.15588855269893   -0.62821101160426
H          -0.60003826708695    2.00870929358280   -0.63877952019035
H           0.69217549527854    1.65564576416824    0.13219225511847
O           1.63612293436042    0.14039693463555   -1.76948196708816
H           1.93098127920497   -0.03428832506804   -0.85405159070445
H           1.27815330508370    1.05495976421120   -1.70333285498261
O          -1.99777494395074    0.50943040430067   -0.48388525339092
H          -2.94164559303081    0.35360547886899   -0.41625450979810
H          -1.62444090265318    0.37299315926287    0.43506251599445
O          -0.43730637310517   -1.21740072356624   -1.57640551734899
H           0.47087575766854   -0.66809826530791   -1.79774293296509
H          -0.22396834226801   -1.66760690928229   -0.65406860968236
H          -1.13513479806130   -0.52627460322129   -1.32458831487830
