    19
        -40.92267752
S           0.51628132349110   -0.87339153017357   -0.32406159248540
O           0.27079909161663   -1.47641017453656    0.97766453252921
O          -0.75616890188171   -0.35334937114595   -0.88366217346672
O           1.51665629587377    0.16891430654007   -0.28372596136678
O           1.00330572879944   -1.97437913118727   -1.30685853601070
H           0.29256977956411   -2.65100077620248   -1.24993627467429
O           0.04659681608918    0.80327803195990    2.25114960113121
H           0.95203630902721    1.12575505642693    2.25908957031156
H           0.10463501098479   -0.12973923972356    1.93449952756412
O          -1.15250541458032    1.79196722793683    0.24196009876869
H          -1.10371105546080    0.85393362073454   -0.30447871818563
H          -0.78264280047664    1.50829315388430    1.16150730042280
O          -1.22161181539471   -3.13138873296824   -0.53667990365469
H          -1.79311294408782   -2.42891190881646   -0.86329631193574
H          -0.88369285710684   -2.81529819208093    0.31649525274013
O           0.98821229675109    2.66952308802184   -0.80703665251414
H          -0.39464940709178    2.33254658256043   -0.18724200840915
H           1.36226058979314    1.76912594118470   -0.64075198752045
H           1.03474196408484    2.81053208759232   -1.75463577325020
