    19
        -40.92267753
S           1.02721460590315   -0.27802093263434   -0.04121858605816
O           0.30853034660360    0.55828935375605   -1.03462166200349
O           1.26313961577771    0.49223009356033    1.17097389193144
O           0.30803789321068   -1.50776317923764    0.20233493009572
O           2.39503384983522   -0.63648190238506   -0.68609110310648
H           2.82849360117033    0.24011483360554   -0.78570231591736
O          -2.04681476044335    0.53965831456999   -0.34313317960058
H          -1.86765241682772    0.54533289814847    0.67207547167096
H          -1.03931868554190    0.64596519175203   -0.73658549750772
O          -1.20250688282754    0.31508237573929    2.04208320728033
H          -0.24426979081599    0.47402805312298    1.86701464502545
H          -1.26322088277566   -0.60746177451233    2.30502734982432
O           2.72706575255502    1.96211112811595   -0.54819420880440
H           2.34658260742884    1.78698443897265    0.32735954963924
H           1.97862948359403    2.16832596208830   -1.11746632446894
O          -2.08103986900840   -1.96949702833036   -0.73874876239550
H          -1.16678376161209   -1.97610436210970   -0.36140866728236
H          -2.26347266899761   -0.43776086023705   -0.56316837632981
H          -2.00764802722602   -2.31503262398042   -1.63053036198652
