    19
        -40.92343666
S           1.26212164185838    0.51238788644183   -0.99506768829176
O           0.19330579414961    0.76750254968686   -1.96191188154937
O           1.33488576037801    1.54670803891928    0.01479053320950
O           1.16242980714531   -0.82082592884926   -0.42253487303313
O           2.61049551417084    0.54337210206975   -1.80923761551282
H           2.61477985926099    1.42300298124747   -2.17353620673362
O          -1.94947976610573    0.36503235932692   -0.77190336376052
H          -1.14031294872754    0.58421057799049   -1.39660439571031
H          -1.84208094278540   -0.64136080007658   -0.59329670960538
O           0.23693186128088   -0.93102385428742    2.06335152987348
H           0.90949338366701   -0.88834592122184    2.74448089301238
H           0.71363862849018   -0.90865224647262    1.20431150158103
O          -1.21752100408542   -2.01395603311057   -0.23997067629349
H          -1.20069442504525   -2.15162284609949    0.71354322217034
H          -0.29300532878641   -1.79792514038155   -0.48242108417403
O          -0.94440109835145    1.35216280295585    1.28338477619329
H          -1.66611759908270    0.84809349491908    0.13919142723559
H          -0.68960298317976    0.56325999056401    1.80614138703115
H          -0.09486614425802    1.64797999637546    0.87728921433333
