    19
        -40.91782054
S           0.25810327429252    0.93534980947729   -0.45875854746546
O          -0.03592361742074   -0.03604866768731   -1.49381943376517
O          -0.88679408749812    1.74884149475985   -0.11971776548569
O           0.78297465671611    0.24443312685093    0.75443644963647
O           1.41587202018852    1.83604278254381   -0.97232711127536
H           1.73640145206591    2.31013364394135   -0.17415215249428
O          -2.55391751411055   -0.22351363574924    0.02857246067510
H          -2.05331454370407    0.63496728521235    0.04923034098269
H          -2.68247393999316   -0.40662052961758   -0.90577607708595
O           2.12450886039336    2.41739047562920    1.49540691441930
H           1.61245128065007    1.59093921701083    1.56116118543467
H           3.02950863685068    2.20101914355838    1.73279739922746
O           0.14890158289898   -2.60253309289930   -1.17998293854437
H           0.22921888071831   -1.64879100769699   -1.43682924429766
H          -0.38228127054428   -3.02557260135058   -1.85724102923720
O          -0.73243496164758   -1.67847548598573    1.01956678424844
H          -0.01783887439729   -0.87772690814872    1.03444296829257
H          -1.58398472378584   -1.18164553407165    0.69679147082982
H          -0.40897712167492   -2.23818952577699    0.22619830590181
