    19
        -40.91898029
S           0.09915714356662   -1.62778444138542    0.04442776790640
O           0.40660231217527   -0.88288201168076   -1.18921770936562
O           1.28526237660638   -2.10538011494541    0.70553796674694
O          -0.78372926773811   -0.84514417603490    0.89411941556702
O          -0.73251356762783   -2.89302157819421   -0.41826441274131
H          -0.08376495915525   -3.56655616376136   -0.60470173270864
O           1.40036637540925    0.26931353970665    1.91064008852319
H           0.45068792769730    0.04875309981348    1.90726425434147
H           1.81236975566071   -0.59869493453053    1.75845419961842
O          -2.07097134695653    0.44436422112235   -1.02168344109559
H          -1.62683234541917    0.02416775579212   -1.76448947734485
H          -1.78148732670707   -0.07073396903962   -0.24017004074502
O          -0.70578737590628    2.59373018586083   -0.45111206164740
H          -1.00111736145253    2.87601770067974    0.41695300698798
H          -1.32835121437536    1.86628064841069   -0.73867812572485
O           1.42804525843141    1.24386389547558   -0.43036115544226
H           0.61478823769078    1.89724060891610   -0.46785689848943
H           1.54654767317790    0.97400729578244    0.56144379731537
H           1.07072769491689    0.35245842801852   -0.87230546170549
