    19
        -40.91836641
S           1.38489359991225    1.05365333473077    0.92916831042613
O           1.36655407781831   -0.08045407518571    1.83455954548167
O           1.92041032722123    0.66900184875657   -0.38645324970490
O           0.11138436170340    1.72771959082560    0.82491178945795
O           2.41003128861279    2.09745445081349    1.51913664857223
H           3.18366289406602    1.56285234582120    1.66995967213827
O           0.69777064224309   -1.22052793879871   -1.38221365850205
H           1.29773015393430   -0.40567677752028   -1.02439418562854
H          -0.08497588795943   -0.80248453469726   -1.87203320456538
O          -2.00944761614535    0.36487090078678    0.32194613029878
H          -2.75565457286994    0.84737016935898    0.68174010370044
H          -1.20920844214834    0.92612847322559    0.52323293769677
O          -1.50308218919028   -0.19580967552357   -2.24808879504594
H          -2.16339797912170   -0.81568675379478   -2.56354235780206
H          -1.79493345189166    0.11180961044280   -1.36122756505372
O          -0.33273627761276   -1.76732325955944    0.83329173263533
H           0.28394988896938   -1.60430914633917   -0.48872391218042
H           0.32535382954655   -1.25881225693438    1.37168139679756
H          -1.12830465711863   -1.20977631638376    0.81704866123759
