    19
        -40.91941560
S           0.09355335073254    1.24502656395771   -1.02478265787500
O          -1.15490510310595    1.55591270644547   -0.31792851065665
O           1.23350567357983    1.34434792650285   -0.13157281762721
O           0.02647451027492   -0.02061114715703   -1.72021141983348
O           0.25879973856992    2.36115288788818   -2.12337337237273
H           0.31662520750688    3.16059972363198   -1.60945682054452
O           1.88187012445992   -1.35257790169801    0.08206735524380
H           1.85525501978437   -0.43927670689417   -0.24210894603617
H           1.41901877873208   -1.87771222274225   -0.57402457178170
O          -1.30026390482776   -1.88313517933332   -0.49389393309948
H          -2.08329801148578   -2.10599305406292   -1.00066889165869
H          -0.78448819704800   -1.23880369668920   -1.04469648847586
O           0.85958654141473    0.00823016053924    2.14919551166128
H           1.09355807021892    0.72749844664821    1.52529857797516
H           1.31632458588761   -0.76390062166415    1.76218389591655
O          -1.50961145425070   -0.19097053142549    1.40142028862463
H          -1.50598624784903   -0.99479917346309    0.77199230496797
H          -0.54281495390291   -0.15651546790545    1.85721019654661
H          -1.47320372868787    0.62152728742045    0.73335028903290
