    19
        -40.91792406
S          -0.19903933716880   -0.42593876517020   -1.62371603979324
O           0.12065970079364   -1.76938107381064   -1.17338639810459
O          -1.49652229112361    0.01777727259953   -1.14188273654255
O           0.85453756593344    0.53024511735529   -1.31728430265358
O          -0.28480917798890   -0.48798345372025   -3.20391831410536
H          -0.84870036315064   -1.24135196966908   -3.34879340230837
O           0.35583807782319    2.22799454533406    0.54902546093469
H           1.06846584670340    2.86925640216260    0.52106284835208
H           0.45524996983740    1.66226884392064   -0.26560131339221
O          -1.92762127946080   -0.55524926277635    1.31410925247350
H          -1.80315891832600   -0.41416147893392    0.32993489628625
H          -2.65651355060723    0.01554217873943    1.56809031800091
O           1.83895893479034   -1.13871310020677    0.61910205496889
H           1.19492401854275   -1.57678700996639   -0.00258715162750
H           2.25738856119812   -0.47670414588888    0.05566146542273
O           0.33034585095798    0.21765495569254    2.09162502361000
H           1.00183778784691   -0.41190899298671    1.56554410692623
H           0.36219791987641    1.11322949020538    1.58697693751841
H          -0.62403931647950   -0.15578954288180    1.87603732403596
