    19
        -40.92136342
S          -0.95790268064267   -0.99804423345560    0.09345343574352
O          -0.74758076915425   -2.30506169891619   -0.47804412411636
O          -0.00668545011660   -0.63797665705708    1.12095311430892
O          -1.04299261613134    0.05506475543218   -0.93344912298839
O          -2.38768068234422   -1.01698519753885    0.78388926399417
H          -2.87605274839927   -1.67035657881799    0.29110595789840
O           1.30728179950489    1.61622407864490    0.88982491916128
H           0.95534280634987    0.76585892167824    1.24014117126461
H           0.50372078829205    2.18113431401843    0.85658785251845
O          -1.27345889966827    2.22514659040527    0.62975334632105
H          -1.33803031845264    1.49684472057985   -0.01655829403761
H          -1.82953799269494    1.97352443411451    1.36903798382467
O           1.81774990685515   -1.77260086139174   -0.76205806922806
H           0.89926866919708   -2.12603225010057   -0.76161963785325
H           2.10861641820178   -1.82479504298485    0.15270814405043
O           1.34973167132714    0.65535429369752   -1.39306653860124
H           1.71313344638398   -0.29013459409958   -1.24296265624565
H           0.33614058564165    0.49248872690898   -1.40055264884785
H           1.46893604584999    1.18034628891481   -0.43914409718688
