    19
        -40.91190549
S          -0.71638067016764   -0.99510890565618    1.08362803447171
O           0.12229929480103   -0.17353276770549    1.98761803143772
O          -1.49262801277609   -0.10963566429742    0.21938438535154
O           0.00915814830216   -2.01272481134617    0.39525472510266
O          -1.75385708642805   -1.72816568667305    2.02083372109965
H          -2.27436608743089   -1.04739676023010    2.43955099720782
O           1.51746137905819   -0.52029180064250   -1.29024685634006
H           1.22843362033842   -1.14245469263717   -0.60192807284353
H           0.78592464288041   -0.54454003063061   -1.93997093363835
O          -0.94411944420441   -0.88361072230970   -2.32505548927759
H          -1.28291031072709   -0.57561127708688   -1.46618661703805
H          -1.00390145715275   -1.84114477678003   -2.29860496626624
O           1.82875274181117    1.92879453918238   -0.52398771124118
H           2.65800689835839    1.96698332207439   -0.04330798970952
H           1.75580089761492    0.99442329920210   -0.88768986806897
O          -0.20101189393694    1.98287099112899    0.94496589631933
H           0.64587445315449    2.07352788215807    0.32385677091439
H          -0.90639516839069    1.56185046550687    0.39675468908931
H           0.02385803489286    1.06576738674448    1.56513125342490
