    19
        -40.91941545
S           1.26387861094887   -0.89552539663635    0.47463647852243
O           0.25761484838676   -1.80731144313129   -0.03859075670818
O           1.86498281215647   -0.11281685450071   -0.61200877050867
O           0.77487101361061   -0.05676851923879    1.54583281954959
O           2.42748845087749   -1.77069694214895    1.07459566529689
H           2.68103625988145   -2.32196486829960    0.34082871168352
O          -0.29758591338751    2.17836701271742    0.78278870410723
H           0.10265817400839    1.35868364430435    1.17368143067909
H           0.23128379485371    2.91388414198248    1.09734204626325
O          -2.03409820673935   -0.55990187111899    0.94167469661540
H          -1.25152559896409   -1.13020836832646    0.89710011543579
H          -1.82346350195451    0.12811425371961    1.57627084518445
O          -1.47945645207631   -0.61417651225402   -1.67501693325041
H          -2.08565136295081   -0.47987539932532   -0.92036299028884
H          -0.84137474448190   -1.26859682917319   -1.31963720135226
O           0.09272832087970    1.31688326840642   -1.58617474065978
H          -0.16344407644239    1.80691698358070   -0.72846613494661
H           0.92978486610120    0.75426324194540   -1.28550359185502
H          -0.64972729471860    0.56073045747496   -1.73899040375682
