    19
        -40.92217274
S           0.25084033914798   -1.04176976475886   -0.87142424762564
O           0.19149390247606    0.34795404800633   -1.34212140629359
O           1.50643692778803   -1.67828639581107   -1.14910965434433
O          -0.22070938276082   -1.14549965350766    0.49824678098662
O          -0.85619922073519   -1.81191015295619   -1.73179013794196
H          -0.36837754475005   -2.22315585926270   -2.43922677598608
O           0.69403630673777    0.84982316169250    2.03849394498494
H           0.34523984542962   -0.04884047684021    1.90166882976152
H           1.54671457350431    0.83245001848284    1.55018288636785
O           2.57146722210105    0.39666711947177    0.19243839925232
H           2.60344712859550    1.03778705918238   -0.52165318356251
H           2.34825920029890   -0.45138798482038   -0.23058098466513
O          -2.59680108318345   -0.05685553097903    0.43610727736343
H          -3.02227048264971   -0.32068261405439   -0.38201434919495
H          -1.81335402940422   -0.64489499700349    0.53777206496846
O          -0.85949527147193    1.82273152040248    0.34283947492332
H          -0.22131152079172    1.55361697598637    1.15822419608621
H          -0.39597261233060    1.30892612124517   -0.45485636452764
H          -1.70344430800606    1.27332740551921    0.46680323945883
