    19
        -40.91190602
S          -0.76140620040127   -0.71058909723940   -1.26243807462954
O          -1.21363431437945    0.56166082014478   -0.70465705002747
O           0.59252926571200   -0.53178553588317   -1.83651155685680
O          -0.86552052130793   -1.82052293251043   -0.37193281306925
O          -1.70337976111970   -1.02061817862408   -2.49069623938030
H          -1.67264519173127   -0.25597501630286   -3.05993312640685
O           0.61362962241318   -0.94716986159249    1.72288398458987
H          -0.18732174553439   -0.52190596119246    2.09114837777087
H           0.26994613239731   -1.46630342492471    0.97657686493096
O          -1.88453245631682    0.05150848858201    1.87655752412712
H          -2.39949630679299   -0.75717783838705    1.83264953248748
H          -1.76098970537648    0.33464792433465    0.95359479555455
O           2.29670133379029    0.91422044829107    1.10535901468447
H           3.13561224576056    0.48380147133033    0.92868690063286
H           1.67108627324324    0.19416861660429    1.42349335409247
O           1.08538743833225    1.66461765450782   -0.95556379913930
H           0.13938643398129    1.71307987600417   -0.67470194686301
H           1.64438442103588    1.45086339540599   -0.08710328286187
H           1.00026304630038    0.66347916144694   -1.46741244964073
