    19
        -40.91893419
S           1.29442083573008   -0.61208452374870   -0.98137432053883
O           1.22391215472223   -0.97498045806839    0.42050609001528
O           0.68366014904826   -1.55129408778495   -1.88765356905543
O           0.81058303597239    0.76017331038236   -1.19687343878935
O           2.83924182401537   -0.57741294459186   -1.34468959221844
H           2.84130310432810   -0.73082659993207   -2.28473958022911
O           0.64422346597550    0.62211517630787    2.37643922847605
H           1.46247770785559    0.95615311183762    2.74852023123433
H           0.90093670925665   -0.07443769267528    1.71830407148647
O          -2.60294901111541    0.60536466579172    0.00973630408555
H          -2.22059322439189   -0.31110055913592   -0.05430512984847
H          -2.97210940812672    0.80084079967500   -0.85374563321576
O          -1.37515728528597   -1.69753780179652   -0.24340015441109
H          -0.74018159491735   -1.72830392676901   -0.98770214074136
H          -0.83804035872760   -1.88760408355096    0.53169497417586
O          -0.50681485482837    1.92252188002540    0.52509816361607
H           0.09699742217412    1.49399614322036   -0.24833835647629
H          -1.42719539307715    1.47162258156748    0.37364582790369
H          -0.11471526860580    1.51279499924677    1.37887704453775
