    19
        -40.91191339
S           0.71964879857299    0.22777748367107   -1.45893961286607
O           0.43188823255837   -1.10390309117335   -0.92349903045875
O          -0.55488832506925    0.92323646963621   -1.73123151618284
O           1.63916368828670    0.98769698597894   -0.67443907276376
O           1.39495223687784    0.00523441326184   -2.86847957409989
H           0.77637448633987   -0.50455724994964   -3.38492316260886
O           0.49137783084163    0.97486350541002    1.76982286888136
H           0.89540874649649    1.23952158417074    0.92492312519086
H           0.92031793100046    0.11711416366177    1.96661731812929
O          -2.04821593880379    0.56980911154376    1.64618289506197
H          -2.46542531958052    1.43333190389078    1.61982710922181
H          -1.06089705021221    0.73496199751222    1.77515792043489
O           1.78977750934312   -1.35638168583075    1.40905095701155
H           1.33511083919173   -1.40457195324535    0.54909869264307
H           2.68381145424304   -1.06727698476491    1.21515155408038
O          -2.03456780706037   -0.59718100450424   -0.56203076722071
H          -2.13419938607697   -0.15155240480547    0.39789593923405
H          -1.52839949582704    0.17662656072605   -1.16058184746995
H          -1.25123842111714   -1.20474981519526   -0.50960380621844
