    19
        -40.91190534
S          -0.92017312193021   -1.31979546047185   -0.29781426556140
O          -0.91244104863010   -1.32462993143402    1.18406244627917
O          -1.30431005476581    0.00893349048137   -0.76701239897536
O           0.27730612159980   -1.83351384718180   -0.87900959039141
O          -2.08709661608682   -2.29705561171899   -0.71664508170976
H          -2.89477243423166   -1.92316744451402   -0.37374848465456
O           1.30495140766876    1.56548366331076    1.78538752531319
H           1.71475982124827    1.18797048030743    2.56626570950255
H           1.66145622773091    1.04763384378041    1.00102620225440
O           2.04252848276865    0.11598055142167   -0.22417230574421
H           1.59083744015518   -0.73969294755315   -0.31419599575402
H           1.79876472781119    0.58906546002360   -1.04551407912440
O           0.67785814681969    0.80700521371539   -2.44287872775965
H          -0.12736200845117    0.59810632429519   -1.93763729215202
H           0.84376441151546    0.03939003746515   -2.99456661497409
O          -1.13842184635005    1.05037410004994    1.57068174686588
H          -1.32081995977163    1.14546683923813    0.60491587702145
H          -1.06490040678818   -0.07789212437502    1.56243512102471
H          -0.14192930031130    1.36033737316136    1.71842020854219
