    19
        -40.92136375
S          -1.28246576772558   -0.02199561373210    0.52834960375734
O          -0.86419017502621    1.01590936616824   -0.43068960056865
O          -2.30625332043180   -0.88283034339895   -0.00984466160524
O          -0.13552141354313   -0.72191159860504    1.06134508147455
O          -1.93101595838046    0.77436960995265    1.73900288446950
H          -2.85289039410101    0.84198289731314    1.50692562114289
O          -0.47929109905825   -2.24022219066788   -1.33693273359881
H          -1.28614679863366   -1.83554770629319   -0.94472030505297
H          -0.06513381379109   -2.72583283841304   -0.61809843850881
O           2.25291504899523   -0.07856796090706    0.19480328186591
H           1.51963988238757   -0.49347184868433    0.70408742284253
H           2.18857228265798    0.86545928651421    0.45995911065549
O           1.09769648886458    2.19362794416498    0.97328115675879
H           0.31876796653217    1.92972346000370    0.44803382468708
H           0.80842044076302    2.20923603659610    1.88723080571690
O           0.85710330684652   -0.12871855623515   -1.85215982036651
H           0.41396600930342   -1.05116832884697   -1.81186112636019
H           0.13353117639307    0.47122265512993   -1.43790752033071
H           1.61229613791571   -0.12126428007222   -1.06080458697414
