    19
        -40.91892670
S          -0.81862739429369    0.12156531507262   -1.17168130646449
O          -0.11800465956427   -0.56017248087979   -2.23852830481409
O          -1.19281136120713   -0.81259902013498   -0.09326621335558
O          -0.13409899850838    1.27448073090899   -0.64124574110069
O          -2.18727467426078    0.63905614124691   -1.77161283313893
H          -2.48447155535794   -0.06963819719480   -2.33466767854721
O           1.09253825307130    1.19034041747054    1.81816167335414
H           1.10960743289418    1.55192561622821    0.91776271339055
H           0.16790141517554    1.35851070428010    2.10961931966724
O          -1.56700920922351    1.38102501831856    1.64544080771004
H          -1.97289558758146    0.51130839033886    1.58516765767103
H          -1.26886861667308    1.57682055248294    0.74132986875350
O           2.11363907175347   -1.25948958891256   -1.10649255090545
H           1.33694350218510   -0.94523089119883   -1.63645280318158
H           2.40375447761157   -2.07915019625665   -1.51273766065841
O           0.92344077760182   -1.21044332029647    1.13819726923762
H           1.53944342467788   -1.29879634774862    0.32564455219175
H           1.08469785095194   -0.23190952300549    1.53009905567473
H          -0.02790413926318   -1.13760331072107    0.69526217451995
