    19
        -40.92136391
S           0.40733132448559    0.38361602151378   -1.26934971797855
O           0.43436069168141   -0.54879348729373   -2.36884244730554
O          -0.90487806653777    0.59691379573703   -0.70144670231590
O           1.38279979848863    0.03928060627982   -0.21985713039433
O           0.89039197214076    1.78626981945354   -1.83556735249792
H           1.47458738856216    1.55946171289952   -2.55362129885495
O           0.81926918685340    1.93854985826017    1.59125720303738
H           1.19123924849457    1.30745144210681    0.94641736437339
H           0.62699818802826    2.73841742579627    1.09900895085565
O          -1.23373460802776    0.26524541432731    1.87585769349365
H          -0.56087151104151    0.93352550892705    2.13421045803339
H          -1.39481725414645    0.48070748188984    0.92856450332925
O          -1.01843579537748   -2.24674147340000   -0.97199406297150
H          -1.87539068701952   -1.81254464468503   -1.00568793018633
H          -0.45595994724456   -1.75879929785045   -1.61539162089511
O           0.18452278082838   -1.64911627487026    1.19806641414070
H           0.85171397769762   -1.04760816762468    0.70105502218789
H          -0.47954411224638   -0.89968464652275    1.64351683602609
H          -0.33958257562266   -2.06615111494345    0.42380382792459
