    19
        -40.92343660
S          -1.06145656788840    1.30423272101968    0.13488730073255
O          -0.81699026479202    1.06392567401309    1.54103290325903
O           0.02779064318460    2.05845113885437   -0.48756888627743
O          -1.35665983006945    0.08279303389715   -0.59712975281757
O          -2.34601684158157    2.20903830593531    0.02042518213291
H          -2.09168898584892    2.99461353304904    0.49442432322046
O           1.31255419249780   -0.45618646677867    1.56181914633163
H           0.58589779468331    0.17917294063446    1.76701115613600
H           0.83938344404189   -1.27725733693453    1.31197520684453
O           0.56484201009029   -1.11966296510927   -2.00560964738747
H          -0.25615237894419   -0.64957901327591   -1.75062422318133
H           0.51509697635575   -1.97097050745135   -1.55691913869516
O          -0.48646674649198   -2.16093385526944    0.52420905155860
H          -1.11116926777564   -2.58268149436138    1.11574061863481
H          -0.94172532986524   -1.36839548311965    0.16320435133083
O           1.96381871622815    0.51093301256976   -0.64084782182220
H           1.84416005325272    0.08107457774493    0.33024218033429
H           1.56471078136879   -0.17420792528621   -1.29474718928529
H           1.25007159155406    1.27564010986816   -0.63152473104984
