    19
        -40.92217261
S          -1.16506211440169    0.50842506967014    0.54100259207896
O          -1.93369887469920    1.63172518454081    0.08724487382882
O          -1.19049563235167   -0.62453379204894   -0.39302236744735
O           0.19353361889182    0.80100634763809    0.96247231659205
O          -1.88231550748964   -0.03624882759900    1.86312852250579
H          -2.77878981695560    0.27929306564276    1.79760219807305
O           1.07466972176267   -1.47442481172882    1.89956315744349
H           0.35807434861166   -1.89410455549104    2.37951024343005
H           0.79421690551609   -0.54190139963024    1.75157394738767
O           1.05797610913763   -1.62064434718717   -0.65686682488090
H           0.05436140418673   -1.29166246415374   -0.63622081611854
H           1.24052078227125   -1.75735168468069    0.33211030179925
O          -0.39176397633868    1.47948568596038   -2.11235978149362
H          -0.87706152603549    0.80272820972859   -2.59028486066365
H          -0.96241564227307    1.72765534343163   -1.36357182642330
O           1.93676211889972    0.68003892280841   -1.07350018207606
H           1.56498605226321   -0.71647302002480   -0.91814606495552
H           1.25474562812082    1.05479938535632   -1.67362688319064
H           1.65175637083584    0.99218768776584   -0.19660855579680
