    19
        -40.92011123
S          -0.40103241020549    0.56149156193655    0.83833267594672
O           0.90119071907987    1.02085240427227    0.34758548432432
O          -1.29120705940513    0.28320211791846   -0.30779587617733
O          -0.30552563375547   -0.57776883621996    1.71464772243475
O          -1.04678739579218    1.72774822511436    1.63467296219815
H          -0.87530947724293    2.52216950088395    1.08417977160871
O          -0.53738643276568   -2.98929979983782    0.75641271389708
H          -1.37306092803317   -3.32671904116640    1.08574422881255
H          -0.37154191062192   -2.14419481340713    1.24520707797713
O           0.08007497887060    3.49041806830460    0.03705190357746
H           0.58309146800737    2.65416587736956   -0.03967518583518
H           0.65033908738422    4.11475228498276    0.49159042522444
O           1.81524062892031   -0.69942478178045   -1.39723172795224
H           2.12118452613770   -0.17585699807549   -2.14081683382828
H           1.58748466241587   -0.05774493054816   -0.67927850988547
O          -0.51359902832836   -1.73486228993879   -1.44846878460861
H          -0.95402602309225   -0.82407290265010   -1.01024411224045
H           0.46167309142495   -1.45566948674693   -1.55568435607713
H          -0.53080288299232   -2.38918617040618   -0.65622957939474
