    19
        -40.91907719
S           0.49900207415214    1.27282338553021    0.95526576346408
O           0.15585869639052    1.05642006338506    2.34132980318059
O           1.49426574915710    0.36169711034934    0.43842761911100
O          -0.70065102649293    1.28354667695835    0.09157564788990
O           1.10290056572309    2.73204626235550    0.84588915248378
H           0.63143010139949    3.24608984449297    1.49628734446506
O           0.14698645510523   -1.53172381309485    1.91820611596363
H           0.97882868807476   -1.49304443331469    1.42847347268563
H           0.10000908644936   -0.65457691415648    2.36028031131755
O          -0.51623784264366   -1.74333579216156   -2.05546385817051
H           0.06193950843416   -0.93429922825673   -2.17370203787678
H          -1.07325000261598   -1.80232399534959   -2.83377040473858
O           0.76609345187196    0.52584032622558   -2.09264291107833
H           0.07729074709942    1.13307780255801   -1.79255246147630
H           1.32202109755967    0.41871073058704   -1.29556429888705
O          -1.56918669620996   -1.04023616927398    0.13148931978620
H          -1.19862170458702   -1.42140084426824   -0.76236725874737
H          -0.95397172833893   -1.39553413815050    0.89152061476645
H          -1.32470723051667   -0.01377688441168    0.10731807586697
