    19
        -40.91892625
S          -1.37504021691312   -0.23088726428001    0.33153543293389
O          -0.45917946075705   -1.36571406782425    0.11092077882554
O          -0.67327656391297    0.89739541882748    0.89174174127911
O          -2.14269287058164    0.06472854317846   -0.85895603237236
O          -2.39792098872394   -0.72451438799425    1.43186280908170
H          -3.01889934344012   -1.26640466883066    0.95399124051183
O           2.05028260327073    1.14224595364126    0.63105653887553
H           2.02330677361077    0.52582302744449    1.39756220251959
H           1.19587899312204    1.59952965560420    0.68550632012406
O           1.01772300276507   -0.58902534915838    2.38554308400426
H           0.84210496409218   -1.43554204888460    1.96427991637234
H           0.25732184167771   -0.03324712712594    2.14663135367426
O          -0.33280031489277    0.93108732461736   -2.50963661896869
H          -0.60699615804544    0.69146072026524   -3.39759118593601
H          -1.09257515668265    0.70778701782343   -1.91317179171881
O           1.40115914019381   -0.40714166903343   -1.22117479936700
H           0.83504885071034    0.16266309703974   -1.85553969508542
H           1.80499656814908    0.26417036777263   -0.49724206935941
H           0.67155833634165   -0.93441453307141   -0.67731921538422
