    19
        -40.92136401
S           1.16739680312414    0.72792818581974    0.17503355076268
O           1.20697576472939    1.90261965803367    1.01018030995270
O           0.81445506050047   -0.48747784933545    0.87359769097725
O           0.31655463993855    0.91544272774652   -1.01325371675046
O           2.63272728414201    0.51307322646448   -0.39737225574093
H           3.00136303227092    1.39119893041423   -0.43110700805265
O          -1.17486866165705   -1.93234592019163   -0.03136049427979
H          -0.78262971795446   -2.07076264536423   -0.92162457884699
H          -0.40293757593117   -1.62225747988825    0.49547747228739
O          -1.12530504188834    1.25171609072236    2.04875462140968
H          -0.86810865947745    0.51131399059178    2.60531323779442
H          -0.27947427396517    1.65992830146198    1.75447019639419
O           0.46699443348543   -1.53794439415590   -2.09319434053358
H           0.46426969964392   -0.59009895050120   -1.86124421973143
H           1.36684393471783   -1.84077470374784   -1.96027587035007
O          -1.99758806123516    0.39918677986354   -0.19225291140785
H          -1.15357368453996    0.71994610113604   -0.68127238051391
H          -1.80713129668116   -0.67710779917092   -0.13169599792386
H          -1.84596368922684    0.76641572012368    0.75182669453967
