    19
        -40.92136398
S           0.94284245873149    0.13377481503425   -1.00787934188328
O           1.09168043880614   -0.86047117768514   -2.04137697346980
O          -0.35605436470875    0.76736812250808   -0.97385559359964
O           1.30843829526575   -0.38378271110059    0.32263318515434
O           1.99939569264125    1.28041818716188   -1.30782508372980
H           2.71041095792653    0.83082267090437   -1.75563753119777
O           0.71784893204670    1.75491236229355    1.83304548665455
H           0.96890856717866    2.52678103611545    1.32274833347773
H           1.09233163177983    0.98663132154429    1.36204263878104
O          -1.69752197016571    0.77825248083458    1.27630003353599
H          -0.99934932367488    1.24377976641351    1.78808352216778
H          -1.42518894060115    0.94525982129780    0.34490069452531
O          -1.21317516720745   -1.93417997662976   -1.34811032461131
H          -1.82326411980720   -1.27592983326616   -1.69241507671505
H          -0.33395249584344   -1.68928183839089   -1.71610533271457
O          -0.77824236489573   -1.51765403929258    1.13206392313928
H           0.17348555619464   -1.18203445834124    0.94204827417424
H          -1.30012344661549   -0.57183320046669    1.31386727530924
H          -1.07847032705157   -1.83283334893292    0.20547187101049
