    19
        -40.91899945
S           0.85943772882128    0.53611659835269    0.67471940750299
O          -0.04481473347850    1.61626058392773    0.34008216263072
O           0.48066269382910   -0.17594230601701    1.87373114940602
O           0.96050795719646   -0.40764737063610   -0.47865910457264
O           2.28802852673811    1.10375656852480    0.89173224146229
H           2.55811878808488    1.39577200684598   -0.00403691045850
O           2.63561107784904    1.22706002435432   -1.71628014511574
H           3.40441093565425    0.76923031854918   -2.06401205330137
H           1.95006788933704    0.55048703949991   -1.56239896209900
O          -1.52745775537282   -1.78087906335389    1.68687464523472
H          -0.79654857526261   -1.13379323094114    1.88844442359900
H          -1.25716420055217   -2.61354104117186    2.07925084398736
O          -2.26706464255467    0.95871465229979   -0.78512245615181
H          -1.42403932566024    1.34676422302178   -0.41944787845442
H          -2.94241178961253    1.12752190365091   -0.12416958606431
O          -1.29460873407015   -1.36226349642841   -0.79669575363224
H          -1.48558242016705   -1.66507863842599    0.17043481007863
H          -1.81466037733469   -0.46670251817621   -0.90641822365201
H          -0.28249304344028   -1.02583623387547   -0.74802861039755
