    19
        -40.92136397
S          -1.33786954474025   -0.19379330421474    0.30886311312705
O          -2.10957609687162    0.81397937843133    0.99292628620396
O          -0.91450409963919    0.24164535718497   -1.03373812824833
O          -0.21304066895716   -0.69725853584178    1.06458966646215
O          -2.30350748123902   -1.42855688332152    0.05523078645314
H          -3.16983422904705   -1.03716932784743   -0.01220620080923
O           2.16643406325517   -0.64703967366268   -0.02920499317677
H           1.42366280847451   -0.81042157304091    0.59635955245946
H           1.91473034021121   -1.19522111370931   -0.80517752769574
O           0.56447139302860   -1.87438298457140   -1.76849809545446
H          -0.05936646333622   -1.13260595305947   -1.65464967438724
H           0.11711514024506   -2.65135781724989   -1.42882430200778
O           0.10767391226245    2.08589133012042    1.63328381892879
H           0.45422719765993    1.50215035120212    2.31384086945958
H          -0.80737777337501    1.76736973340951    1.46070891241312
O           1.18571373010025    1.55033906764544   -0.61716901641586
H           1.77689059947090    0.65484463001380   -0.39485509879054
H           0.31841195764915    1.12892950933310   -0.96956990308387
H           0.88574522442741    1.92265781932305    0.28808994447435
