    19
        -40.91793077
S           0.72271297033934   -1.25033599867015    1.00138393957292
O          -0.62804941962186   -0.77354879334729    1.33969481658056
O           0.69379826700508   -2.55634902761143    0.38398534161520
O           1.44900996481125   -0.25860937687442    0.23527345151006
O           1.48277041206034   -1.39539936143213    2.38028673261400
H           1.09981521665809   -2.16999798810115    2.78324170925759
O          -1.35577603107781    2.22295660277392   -0.88679077313678
H          -0.51487924338620    2.29760857459298   -0.35742159459921
H          -2.02313008234826    2.70613437590480   -0.39536598371504
O           0.18914724129925   -1.43185084051794   -1.92812319307912
H           0.91284912656294   -0.80209519263981   -1.82768241995576
H           0.35980386980394   -2.09247674749701   -1.21922522103302
O           0.81767635085461    2.25465950393825    0.56604375389496
H           1.59483575504124    2.73383828568892    0.27253670154386
H           1.06667172514859    1.30010004156346    0.54324143919875
O          -1.76439356981531   -0.28056104567138   -0.78540053522307
H          -1.07800354362012   -0.74209524032248   -1.40074839388694
H          -1.37726209013698   -0.50423373804655    0.18908859955561
H          -1.64759690943560    0.74225596632647   -0.89401839068138
