    19
        -40.91287618
S           0.40199091182779   -1.25784599729547   -1.20933120129851
O          -1.00646199892216   -1.00567787410041   -1.07039025385231
O           1.17840253825120    0.00240166766882   -0.82781453803264
O           0.95709250837824   -2.38071455215385   -0.54319024239709
O           0.68265084962113   -1.41741631861642   -2.75320524963490
H          -0.03408788031783   -1.01425158087573   -3.23994191790085
O          -1.12319247536938   -0.26056146643624    1.61870214627697
H          -0.25788943941210   -0.61214314547986    1.90198410225667
H          -1.30115006699241   -0.65416360602738    0.75442670194859
O          -0.94877057852012    2.35836851016108    1.28083763860352
H          -0.24443054808540    2.66868226186688    1.85154167809897
H          -1.11694331067746    1.41581450424226    1.53066929206501
O           1.43648378803727   -1.17034080724209    1.83966075398211
H           2.08024924275483   -0.52947914490595    1.52961583318935
H           1.36497918155139   -1.83292532819991    1.13522339561716
O          -0.58528067887806    1.70383825148905   -1.20910428500112
H          -0.71945125753562    2.12656091715831   -0.31259758287405
H           0.52524180912807    0.81493645534691   -0.99953192105813
H          -1.28943259490878    1.04491725334018   -1.27755434003632
