    19
        -40.91892671
S          -0.53783022498831   -1.32287997341890    0.13157080247574
O          -0.53335204975799   -0.64559001392787   -1.17877454373757
O           0.59162287827012   -2.21753223809856    0.26499243950370
O          -0.68245849884757   -0.37063423634988    1.20460419644383
O          -1.84184716053438   -2.21736536455849    0.13633459543362
H          -1.61034774164326   -2.97963521303753   -0.38616438159736
O          -2.32133775213037    1.28697225159703   -0.15986367966927
H          -2.17746211780749    0.91668500951660   -1.03565346459212
H          -2.02464346267407    0.59337199285463    0.45275864362025
O          -0.05188520892737    2.28045456124926    0.84111913827525
H          -0.95648787136287    2.27969094182961    0.45384666800626
H          -0.07482923134131    1.53132159589576    1.45761914523283
O           2.61283911223914   -0.58591562062506    0.32420341031966
H           3.36444982399916   -1.03527041393174   -0.06847873819289
H           1.89492118354501   -1.26441519556735    0.40848218757095
O           1.21492052451393    1.10086114528511   -0.96387084248827
H           0.75500551773158    1.71808611129580   -0.22579307141700
H           1.91183580122231    0.53648992488504   -0.47094251008739
H           0.46688647840779    0.39530473517830   -1.18598998507429
