    19
        -40.91287662
S          -1.55286021364869   -0.83050606056597    0.32172576653650
O          -1.17713594264801    0.11331151840423   -0.82037168972227
O          -0.39269136724642   -1.58296499307502    0.71490284993219
O          -2.26410962340971   -0.11416780238664    1.31860500484417
O          -2.54816379589434   -1.85319314203069   -0.35006517548729
H          -2.05908072385669   -2.63018678775634   -0.61501762949548
O           1.35805973010808    0.49459438825454    1.36271979096641
H           0.70271722733426    1.21306794594611    1.44659036782423
H           0.85263385475495   -0.32885152250643    1.36101849990458
O          -0.79102833559462    2.16504847130701    1.22863528681360
H          -1.00105073088865    2.41603608642688    0.32636239609086
H          -1.44890335282435    1.49669151211358    1.47532517432169
O           2.58729503117907    0.68002763374592   -0.97351151971710
H           2.27541096000240    0.64490919640802   -0.03516800966551
H           2.55482364292234    1.60084437900224   -1.23635801531683
O           0.81322722995529   -1.07660828815709   -1.69959095003674
H          -0.34973307097160   -0.32749113231156   -1.30763935764439
H           1.56158985317664   -0.42243875534574   -1.58813169284004
H           0.87899962756233   -1.65812266749997   -0.93003107728416
