    19
        -40.91287586
S          -1.10836507781851    1.02325099707060    0.96521661259367
O          -1.52187654549503   -0.34932566892951    0.85704171898575
O           0.41211831212786    1.10246960593164    0.82733369080838
O          -1.71568501947673    1.98159106892966    0.11360345100130
O          -1.37155159797070    1.45918531780597    2.45787307667228
H          -1.43082477886921    0.67601896640740    3.00218479145173
O           1.82291972620831   -2.01872209759448   -0.84159369470866
H           2.51610201671433   -1.58016994342946   -1.33680637457266
H           0.96740274041848   -1.75263321673990   -1.26115828575852
O          -0.47850250854114   -0.99310051648576   -1.65259045064796
H          -1.04784759870027   -0.90599748901439   -0.87683233512933
H          -0.33545260879716   -0.08674707511104   -1.98531756561055
O          -0.04449570844987    1.67459021684244   -2.00510296326654
H          -0.77115176708432    1.96746244417555   -1.43381395988368
H           0.76054822137081    1.97008235590125   -1.57424533048206
O           1.00600427298987   -1.21226063613413    1.49171567846263
H           0.09426407319688   -1.52777309416523    1.43012704199737
H           1.46099869337526   -1.59184583408328    0.68601610575367
H           0.78539516478173    0.16392461898686    1.13634879207236
