    19
        -40.92343634
S          -1.51191354636451   -0.66420356875787    0.34503592828837
O          -0.67926639590544   -1.78340783901426    0.73120762459215
O          -1.03222593840945    0.59992039517985    0.88078605813348
O          -1.70187672535533   -0.59979604624308   -1.10480025288899
O          -2.94023423258365   -0.89488349051593    0.96855374591992
H          -3.20445169290378   -1.72533178143157    0.58502175597382
O           0.40880685574803    2.23621859223936   -0.65829466835461
H          -0.30220964443791    1.85844833630927   -0.09990274820874
H           1.18279981344586    2.27509853296859   -0.08566420272267
O           1.53815799896911    0.66120541897039    1.54164513858192
H           1.72559709669884    0.41411321825645    2.44820484753562
H           0.56116891040268    0.62348980943768    1.44255368664101
O           1.64146396042958   -1.24372553743766   -0.34976892601809
H           0.84052223030831   -1.66871864169378    0.03977747532539
H           1.90087277639218   -0.57793003101589    0.32104467183145
O           0.46822599400141    0.12131706494220   -2.07332909514707
H           1.08087210180788   -0.49432611255318   -1.45022412691169
H          -0.49425641525011   -0.19961744770352   -1.81921849738219
H           0.51794685302353    1.06212915805365   -1.66262842509165
