    19
        -40.91966070
S          -1.03449295278567   -1.04376441374050   -0.87908527818377
O           0.26504142179929   -1.54550365897506   -1.29800092845696
O          -1.35113512930727   -1.49268526479395    0.48559362937093
O          -1.16309423316466    0.38611914522512   -1.01379402474941
O          -2.11163283008638   -1.70946816258518   -1.81448559249121
H          -1.95985559787203   -2.64078786003552   -1.68577349448012
O          -0.73048531481489    2.11262434273608    1.04557210355313
H           0.04525383414044    2.35125206233248    0.48165688828959
H          -1.35816000507505    1.74688924224101    0.40080036517623
O           1.98853798130412   -0.53721720077154    0.30600533384237
H           1.38662177728979   -0.95415905458133   -0.37685987910263
H           2.68276082545350   -1.17590339548792    0.47920878673542
O           1.11729417419245    1.92551161773517   -0.83149961286453
H           0.39156093399578    1.42886367018662   -1.24401274913666
H           1.76706714257242    1.26471820172701   -0.56564788540466
O           0.04934881445257   -0.07992911975931    1.94516399035921
H          -0.61626422283596   -0.72857621700303    1.42775276480142
H           0.92154828759287   -0.21422376227348    1.45307081490355
H          -0.28991492682605    0.90623980783661    1.68433477784452
