    19
        -40.91287700
S          -0.45456230638660   -0.15692650852373   -1.72337159639123
O          -0.03741669419616    1.08768522020639   -0.94074069289532
O           0.23228930401554   -1.30277843412456   -1.19235426362683
O          -1.86878917605092   -0.20433562686757   -1.82624404964074
O           0.13369808018198    0.09329439537075   -3.16551801628255
H           0.97284336825698   -0.35801051007541   -3.23786791651634
O           1.46016623225613    0.16622769871361    2.43949933139026
H           1.10315988110024    0.90760177021317    2.93037199127984
H           0.69406521322937   -0.42090512175350    2.22174081996986
O          -0.59711351073461   -1.18869942671868    1.47264908259541
H          -1.36108683509261   -0.59175547168698    1.35998131946039
H          -0.35820120569340   -1.48703364615989    0.58531578331229
O          -2.43453335605098    0.66263112149290    0.68338635199831
H          -2.05749211898515    1.54169857757781    0.60395237885128
H          -2.52084803970521    0.33071781827373   -0.22374443238911
O           2.14780085422086    0.30967603801908   -0.06378035547226
H           1.98156984622251   -0.61272077104742   -0.30091044350993
H           0.92423340950163    0.88398914420044   -0.55261598862132
H           2.04021705405675    0.33964375282376    0.93025070645397
