    19
        -40.92079121
S          -0.29588265487137    1.32174975905991   -0.61114450206126
O           0.36046811886978    0.37588613361077   -1.51585353226762
O          -1.71215288024359    1.42450457419051   -0.85136401360193
O           0.05790000249264    1.05155116140617    0.77550155466476
O           0.33739952622436    2.73708128574450   -0.92838915287638
H          -0.01322025001258    2.94710328986758   -1.78830164238161
O           2.51776650801026    0.23328484052213    1.17319778996610
H           2.64185861692537    0.10476772131234    2.11574128301571
H           1.67154836718418    0.72866409787020    1.06611035276331
O          -2.50569531826829   -1.08142582904072   -0.57724834809461
H          -2.25666381421478   -0.15206803964069   -0.77265551680660
H          -3.44995341520751   -1.07510812530058   -0.40957442418084
O          -0.57963715708867   -1.50672332872174    1.17155329525681
H          -0.46656975518617   -0.54352587079450    1.30277677895972
H          -1.36269108419273   -1.57223747572036    0.57606913795005
O           1.41282547894843   -1.52237057238892   -0.32610621654709
H           0.58253566467901   -1.70759610006857    0.31688401293227
H           1.00969796719793   -0.78557541494649   -0.96324598093365
H           2.05046607875603   -0.97796209696071    0.24604912424505
