    19
        -40.91898044
S          -1.03143149700641   -0.39696097293644   -1.20032091614310
O          -1.14214225378496    0.81284819700750   -0.40123771448385
O          -0.48043301229703   -0.18895179201711   -2.51364357553548
O          -0.30898240886633   -1.43675008287342   -0.44681271680643
O          -2.50425305595293   -0.94839199098995   -1.38249605148500
H          -2.49002820669400   -1.43838464950801   -2.20047634545084
O           1.23862755542439    0.40781640088733    2.39438003421170
H           0.28545131515570    0.10633612579827    2.38822925317513
H           1.21984088480906    1.36411769145156    2.46950718644655
O          -1.22710319536066   -0.33749983662333    1.97774361622038
H          -1.19267269212242   -1.24805739632755    1.66904609800513
H          -1.35780905293341    0.19208410867227    1.16391796802748
O           1.22558327023210    1.51420483394185   -1.37250763030173
H           0.94219117610142    1.05325154862299   -2.18064254578377
H           0.37656529131485    1.68273714901013   -0.92356702153769
O           1.89004866692121   -0.43647623232374    0.10577650505575
H           1.80161886730911    0.39421289024604   -0.50427663759431
H           1.73566268501033   -0.10715469231916    1.08440610946483
H           1.01926568235465   -0.98898130825762   -0.12702562616726
