    19
        -40.91892638
S          -1.41883444909542   -0.18239766890612   -0.08936490045047
O          -0.66713918014187    0.23076760209027   -1.24843870623351
O          -0.60729672367317   -1.05020441680599    0.78463115812878
O          -2.02177157131261    0.90025408233924    0.65794350338724
O          -2.59779649702522   -1.09775597089107   -0.61176985927885
H          -3.21680826385067   -1.12474450317880    0.11190656365091
O           0.03082990942691    2.32907823932797    1.36187707126779
H          -0.17236728892573    2.73824018260918    2.20586860582657
H          -0.80626920063574    1.89712208460333    1.05258188022256
O           0.69603787925172   -2.08905188159689   -1.49342918742621
H           0.47889740817901   -2.45534741492779   -0.63107149671734
H           0.02598528396924   -1.40160802171801   -1.64450278681583
O           2.07952303537692    0.18382972015176   -1.24385608803939
H           1.27586552859258    0.62590234171388   -1.56131492306952
H           1.90888047494343   -0.76337468581730   -1.44780761404515
O           1.47170434307872    0.24383401859851    1.18106333036107
H           0.63831735443499   -0.39321088451457    1.10464308113009
H           1.86479639590460    0.24862438007483    0.18961275896855
H           1.03744556150858    1.16004279683934    1.32142760914582
