    19
        -40.92343662
S           0.54680863799406   -1.58836399821508   -0.15221504370692
O          -0.79351601621295   -1.85407403763743    0.32505051022428
O           0.57286129968877   -0.60834932861515   -1.22649791271429
O           1.45157168013750   -1.22073380352073    0.93807291788660
O           1.11148139740512   -2.92661850279505   -0.76222164838812
H           1.08783940863006   -3.52160948913378   -0.01919097820770
O           1.17132969586752    1.93623268795454   -0.69062092230544
H           1.19326459602928    1.02150350573102   -1.04129557314587
H           0.35843468319901    2.31854097668878   -1.03917018104225
O          -1.59343060705048    0.44828506749709    1.27573083641811
H          -1.44571581952689   -0.50597286426530    1.07198649290014
H          -1.78275142980014    0.84612221802982    0.40024748903927
O          -1.53050757132052    1.00664062656648   -1.35116526174677
H          -2.24833098656718    0.68934966626659   -1.90079819954041
H          -0.81591337504068    0.33525490618818   -1.41701206280029
O           0.79045224366218    1.05917199485690    1.66820880027809
H           1.17232113575105    0.10282088312374    1.48537185824377
H           1.01825425446265    1.57144773763034    0.80682416750951
H          -0.26445323731925    0.89035175367728    1.62869471109538
