    19
        -40.92079027
S          -0.39915853696113    0.58049400186230   -1.30880905701603
O           0.83836450580191    0.82165614465498   -0.57996407806425
O          -0.88868113785065   -0.78068639027660   -1.08090025681983
O          -1.41647998995188    1.57653021121817   -1.09251597138160
O           0.00560347458249    0.64469115758179   -2.83747180224933
H          -0.83046420000373    0.58883861438148   -3.28962372487200
O           2.46686879233373   -1.22745283206749   -0.41532588373722
H           1.97075087030884   -0.40549800506413   -0.64186605433435
H           3.24847381989488   -0.95063960889558    0.06710316775617
O          -2.16038261006307    1.08315640427736    1.39471166727112
H          -1.98470187874447    1.25687106764391    0.44447667547106
H          -2.59451784831563    1.86841757389122    1.73373008676297
O           0.30382733570384   -1.93693088070448    0.75432568019429
H          -0.29216727533064   -1.57262444880820   -0.03506578764873
H           1.23503079048104   -1.88780169018085    0.35329873153744
O           0.27327446162171    0.24412603652275    1.96026411409910
H          -0.67212983182797    0.52347080017902    1.98324312996127
H           0.26913385000293   -1.11145499546253    1.42898536942921
H           0.62735540833408    0.68483686926896    1.16140399364446
