    19
        -40.91941571
S          -0.34290977293236    0.88884709074736   -1.30756710409737
O          -0.36601890255784    1.91327789616192   -0.25659667856762
O           0.99747486651150    0.36133013640498   -1.48777163398858
O          -1.33297483868593   -0.14138902914338   -1.08744639286268
O          -0.73981870597647    1.62594759156703   -2.64132626334979
H          -0.04022283380041    2.26246560401248   -2.75083136472825
O          -1.69469459176086   -0.80398431476554    1.39448855813541
H          -1.63773259638018   -0.61424929842021    0.42210524428046
H          -2.58303026320905   -0.56474135819739    1.66510071895658
O           0.63415224173561   -2.18450733010206   -0.42153115041496
H          -0.29467045838008   -2.38259281207506   -0.28565093859320
H           0.65985261944590   -1.45296958220171   -1.05713579418795
O           2.13893185032436   -0.35015458434706    0.81809870020511
H           2.01217953426097    0.05365357688744   -0.06637102607742
H           1.83377262107476   -1.26755910184240    0.67698308161183
O           0.21253279438997    0.81543797111787    1.88667551439664
H          -0.53414964085127    0.11947396430297    1.88097103973671
H           1.10090352463625    0.31224848697932    1.56722498232054
H          -0.02357744784208    1.40946508291573    1.05058051722063
