    19
        -40.91941582
S          -0.64625147015478   -0.87799240927884    1.19541728398853
O          -1.67000343223844    0.04465829311177    0.73931964170203
O          -0.39110218408942   -1.91627685635599    0.18954557622211
O           0.56763023558153   -0.21501540477060    1.61610800710479
O          -1.21728164977815   -1.62810390013478    2.45670578046392
H          -2.01518025560621   -2.02807422546219    2.12509245136905
O          -1.21598339451658    0.94602999108771   -1.73091693164779
H          -0.77357185483712    1.73204256483741   -1.35540018797371
H          -1.67984012013212    0.57183002494821   -0.95215643029054
O           2.31588856208315    0.16782076605354   -0.26219371338215
H           1.71998689468803    0.05866346494272    0.52376134151200
H           3.10325339681267   -0.34779804049957   -0.07828029097285
O          -0.09256326553459    2.29488231311941    0.29043052183728
H          -0.64921192364357    1.64236109288412    0.74220752176058
H           0.78687743080047    2.19164238992836    0.65961678101567
O           0.54873608020721   -0.81148712735689   -1.81798016514019
H           1.35368719232386   -0.37938293012097   -1.36264765883754
H           0.14204472448604   -1.40291561687138   -1.04825898496576
H          -0.18711497645295   -0.04288440006017   -1.93037053376303
