    19
        -40.92343532
S          -0.55922193742079    1.48016724284282    0.58573457585359
O          -1.23387370191141    1.47307385036335   -0.69492115054571
O          -1.25428735197296    0.65369305298181    1.57358121813098
O           0.84607490796185    1.12157173602298    0.47894553406014
O          -0.59809659901098    2.95601687409620    1.13554555022794
H          -1.53129364436249    3.14146624613906    1.17110442716174
O           1.62744496626313   -1.36889752549111    1.03785540159074
H           2.03323525485171   -1.55216491149878    0.18330683322387
H           1.50829760845237   -0.39664254375419    1.05976063572279
O          -1.06355897760577   -1.01600123585993   -1.48238772343289
H          -0.12678846484903   -0.95798467692397   -1.76451969953894
H          -1.31796394371745   -0.07616476311617   -1.32121005002166
O           1.51145909087227   -0.27474123005736   -1.67836826156514
H           1.78002866094621    0.25322798511259   -2.43142028108021
H           1.32253964679882    0.35897285926137   -0.95139165535268
O          -0.89127267844120   -1.71027617150545    0.90484408874364
H           0.12729890348960   -1.75406448071761    1.03516845636333
H          -1.14214973541852   -0.77535385894508    1.30099010456699
H          -1.03787201492084   -1.55589844895195   -0.14261800410552
