    19
        -40.92139832
S          -0.94550041235793   -0.07858965239488    0.75354491854193
O          -0.57621479671171   -1.32544891674613    0.09038583882168
O           0.22915646083467    0.53415533332123    1.37170077570882
O          -1.60798788774230    0.84648416501110   -0.16265310753223
O          -1.97281873298646   -0.40110514361196    1.87618053140708
H          -1.47761845180079   -1.02079664100823    2.45022579159831
O           1.67370326665484    1.78318141099929   -0.36751326445346
H           1.81123553413152    2.67187324051329   -0.03261928455647
H           1.19808266555224    1.28916081731160    0.35735450132678
O           0.06104598563763   -1.86605697058643    2.68765989687263
H           0.56587199337922   -1.04463417772304    2.62603458588277
H           0.03015859723206   -2.20681179671988    1.78333237920121
O           0.27011916404752   -1.10396556860486   -2.35483082198374
H          -0.12144461609417   -1.30955373992066   -1.46505784409226
H           1.18027041162692   -1.40724578974398   -2.32530112035378
O          -0.14383866450824    1.37079093992409   -2.07749734440683
H           0.67065222757472    1.64379650702667   -1.50549145142671
H           0.04269197337384    0.39735026754216   -2.37531662095431
H          -0.88756469784219    1.22741571541087   -1.33013835960031
