    19
        -40.92315433
S          -1.50006282454701    0.21187439317034    0.76628909699570
O          -1.90302928673407    0.71472171869545   -0.54962961965225
O          -0.82891163772453   -1.08185416749380    0.62638851621369
O          -0.71617037483348    1.14616855489210    1.52850009081076
O          -2.84465769839553   -0.04573203854026    1.54461567681193
H          -3.42166810798115   -0.36948329666193    0.85991486567103
O           0.57676441892415   -1.56547005331107   -1.57238849214616
H           1.43210559146713   -1.72519411894954   -1.15954495315067
H          -0.06957768476261   -1.58169834591274   -0.83260303700549
O           1.79190015506283   -0.89233560389945    1.01706735018791
H           0.81534690640908   -1.00474113994611    1.00757464037611
H           2.05827564997861   -0.96491582932685    1.93466443675135
O           1.45122496732970    1.61116375594723    0.12525441364915
H           0.68098903193272    1.69753725881486    0.73196929836419
H           1.86729026489828    0.76904847209623    0.40943019494213
O           0.17386886903116    0.92267322057878   -1.90116096495282
H          -0.76802103640690    0.92191352945038   -1.44978016257077
H           0.80232823167643    1.31525688966233   -1.13009262975875
H           0.40200457479162   -0.07893319924122   -1.95646873155688
