    19
        -40.92315426
S          -1.58209075396861    0.18741811158078    0.58718408291030
O          -1.80862728143035    0.79626290882277   -0.72622526175337
O          -0.91592825204005   -1.10730751008209    0.43347608411818
O          -0.88845787370636    1.04408769679981    1.51098629664492
O          -3.01793975909157   -0.09609450119390    1.16852269918149
H          -3.50850547606996   -0.34927143258219    0.39280544945975
O           1.63757434325639   -1.00676509791969    1.16035941975071
H           1.78601694855149   -1.15537477601300    2.09526248166072
H           0.66851431688753   -1.09563126351800    1.02129113622330
O           0.75035817957887   -1.45651099621625   -1.60299371265369
H           0.01523062434856   -1.51382893053929   -0.95376380905836
H           1.54441024446502   -1.66491927742899   -1.09931829190448
O           0.42450510963774    1.05752469010510   -1.78784576912480
H          -0.56688883225329    1.04420312325168   -1.45860613107371
H           0.64463191663612    0.05780220516281   -1.89061518863065
O           1.44490902841857    1.56427266019958    0.42929480949006
H           1.81112066579792    0.69434759500884    0.69746954723201
H           0.95566084097956    1.37748177988800   -0.91718556922606
H           0.60550600001537    1.62230302466597    0.93990174675993
