    19
        -40.92120610
S          -0.83020869971675    0.99345294726568   -0.47257279753564
O          -0.01858400248208    1.28053350368897    0.71054047163436
O          -0.47089449630302    1.78660214973049   -1.61570139816573
O          -0.91724207021260   -0.43782425086061   -0.71290914140775
O          -2.31642712379768    1.41789375795525   -0.06915470351047
H          -2.38242130150118    2.32856771928464   -0.34053768937586
O          -1.57807669955233   -1.42471496672432    1.62117923159811
H          -2.22620879245710   -0.83947713758680    2.01747596345325
H          -1.50405966607407   -1.15236147784337    0.67748371568036
O           0.88977013866104   -0.75503312121879    1.78293369259542
H           0.60920726624154    0.19183051473386    1.41771226202645
H          -0.01970315499455   -1.17998005266971    1.92786018244636
O           1.99214172625048    0.75874650317496   -1.60912179467465
H           1.12204547544572    1.20243313904786   -1.61198757094545
H           2.40835215727677    0.97736440831034   -2.44557157661758
O           1.48058597959365   -1.60221611711931   -0.48842708085027
H           1.93275668686241   -0.83606920038980   -0.90189995545217
H           1.27265530735368   -1.21181949106374    0.89669723019863
H           0.55631129940664   -1.49792883754907   -0.78399903099528
