    19
        -40.92343639
S           1.38325082046519   -0.56550883619230   -0.78255490057275
O           1.52218787548237   -1.27901607532595    0.46905334308381
O           0.42527443585799   -1.21561009798669   -1.67811182227054
O           1.07075034102014    0.84193731773336   -0.59146055678728
O           2.77665639143998   -0.61272202181820   -1.51607954549153
H           2.92774932372556   -1.54715874810047   -1.61854608981668
O          -1.45264268972028    1.68316818013469   -0.80879637290167
H          -0.49339116696949    1.54784966945298   -0.95591682486330
H          -1.51897046317242    2.06525334842137    0.07336073053872
O          -0.84472786929630   -1.09231482520748    1.56823601208307
H          -0.73214333317175   -0.16605978446722    1.86797425889183
H           0.06191051739472   -1.35776706654204    1.28289858632947
O          -0.02908745199911    1.46150525493995    1.74424268092338
H           0.50413111060706    1.28533901023767    0.93779710862870
H           0.59516679882949    1.69420877831853    2.43289303106601
O          -1.82783864638141   -0.83221217688822   -0.70706683580642
H          -0.95513119697414   -1.08676742511253   -1.22465067193940
H          -1.54713491214927   -1.01466088091348    0.30788954168672
H          -1.86600987499824    0.19053638930196   -0.80116167277480
