    19
        -40.92135272
S           0.52599085986121    0.09596646128148   -0.70691158563425
O           1.11255064849249    0.38254995296858    0.61754643653469
O           0.26587783190085   -1.33244694846974   -0.85741679359513
O          -0.65872374066360    0.89877484786919   -0.92185526257416
O           1.58158432218700    0.51180251995959   -1.76746285552425
H           2.24631506519088   -0.21418205530710   -1.75665442788206
O          -1.89674047731621   -1.24442168939250    0.64148624662065
H          -2.47445855126014   -0.71179058941019    0.08711419545992
H          -1.12416894218184   -1.46193849741188    0.07231019617684
O           2.75509351971165   -1.82544574178741   -1.56421131360610
H           1.86044429876947   -1.95157397981027   -1.19152242464131
H           2.80012167904116   -2.36289008106587   -2.35864628985042
O          -1.60437495604709    2.41416947873246    0.98655359242125
H          -1.33155141444902    1.94894162126679    0.15759161425193
H          -1.09233926907072    3.22445958027193    1.02028626562617
O          -0.72442873705111    0.37152069592228    2.22822704871291
H           0.19245357446194    0.36022249497661    1.61041999391310
H          -1.15307842673990    1.25137031655510    1.93601440859236
H          -1.28056727484220   -0.35508841715706    1.76713095499558
