    19
        -40.92218921
S           0.96982351946481    0.61420132079841   -0.14887565906107
O           0.84071709984487   -0.45978890237268   -1.12820795030407
O           0.01568259306639    1.69192983314651   -0.40995126871081
O           0.83381137621251    0.10146999542169    1.21089111322802
O           2.38816460215744    1.23881447032489   -0.29446185265589
H           2.97197151052848    0.47459245638280   -0.10715950424470
O           3.03765202748786   -1.23852801001233    0.30919869057527
H           2.44023081756166   -1.11744673833058    1.05950884035718
H           2.46276846303843   -1.48939467111327   -0.42575421874496
O          -1.61899985207416   -0.09085628941256    2.03017016693624
H          -0.65354376468324   -0.10274225574391    1.78981052243987
H          -1.69390028080963    0.47709337636965    2.80003880484497
O          -1.61039212001707   -1.01758449734500   -1.76240672080422
H          -0.64500000910842   -0.91281040829716   -1.54493547714837
H          -1.68677154976690   -0.87230415741108   -2.70784957489834
O          -2.29698324801241    0.85160964695984   -0.21118410641882
H          -2.19397413209558    0.05729414763968   -0.86678592719009
H          -2.19802746191929    0.44873621995043    0.73718370736715
H          -1.36322959087317    1.34571446306753   -0.32922956558793
