    19
        -40.91966036
S          -0.86198374754764   -1.30068349244503    0.70512642898642
O          -0.42591096771501   -1.95406381157293   -0.53883493843729
O           0.24602356071235   -1.18151359943319    1.64001003683743
O          -1.52536357396061   -0.04716983170979    0.44544000863262
O          -1.91614155348480   -2.27164868168980    1.35638946341582
H          -1.41343751469304   -3.06733578106905    1.50129537266322
O           1.99453618392870    0.31271636505980    0.51305695351925
H           2.87562629463516    0.00891264553330    0.73941190735381
H           1.35769870939551   -0.25758253528135    1.03406365785259
O          -0.93690257615213    1.52610048874091   -1.69969987856523
H          -1.60311957886518    0.99027424260637   -1.23931736710939
H          -0.59067530881145    2.10777013534841   -0.97923335837171
O          -0.06300352169542    2.27638946784332    0.67560760069061
H          -0.66838764917636    1.55929441512520    0.92649606322595
H           0.82527989255316    1.92499540424739    0.80555101312948
O           0.84942617810648   -0.21561972772805   -1.73787915977754
H           0.30539950845906   -1.03597619819630   -1.33357046819039
H           0.11301063946222    0.55949038283931   -1.84754327054604
H           1.43792502484764    0.06565009178415   -0.96637005530586
