    19
        -40.92120571
S          -1.20781578216975    0.56766359880974   -0.34516219716813
O          -0.11483810099757    1.46111642469886    0.03930823740228
O          -1.60056937913511    0.70612302162988   -1.72051808365659
O          -0.94749283465335   -0.79480592958621    0.09108872933382
O          -2.45572987286213    1.03470449904693    0.53569135572303
H          -2.90405380689629    1.67069619395612   -0.01369894884535
O           1.71948421574503    0.29997484829370    1.22480134877336
H           1.04236675074117    0.91653435059297    0.70480344239477
H           1.12258426476675   -0.05798211847087    1.96254838436203
O           0.83624317372938   -0.01209221270551   -2.53816866695951
H           0.78516176877013   -0.22461070992289   -3.47247610748407
H          -0.04884222587496    0.31248733137101   -2.28254523358144
O          -0.27149301866831   -0.53071616455926    2.60719900052032
H          -0.84680267114559    0.12742002645448    3.00160137194787
H          -0.67279034254998   -0.75986970647476    1.73728417218305
O           1.56491478665128   -1.52387517245592   -0.47108560372839
H           0.61668940794417   -1.64605779330407   -0.27538662941321
H           1.55399584805063   -1.03679057627727   -1.32286986451661
H           1.82898778857376   -0.50991991109183    0.53758529271598
