    19
        -40.92174068
S           0.55487244699748    0.00072084285887   -0.70294322211100
O          -0.56429612308286    0.56001801128384   -1.43120978333865
O           0.88985904525678    0.87418318542498    0.49204615531058
O           0.38093485608977   -1.36330728684787   -0.29770725429219
O           1.81741081132084    0.10127754875071   -1.58619761744875
H           1.74879968701020    0.97177233439357   -2.05729422432062
O          -2.33866967925521   -0.42266441393810    0.36144714663106
H          -2.17276679349512   -1.36413361034354    0.26507547040037
H          -1.89596387044278    0.00271550875110   -0.39134015051761
O           0.97533887734125    2.26618573085911   -2.74526849112026
H           0.15894988573599    1.91856663846311   -2.34081196136422
H           0.85076367970260    2.23511647906811   -3.69722578183293
O           0.33683541304507   -2.11097908004866    2.28748827432034
H           0.37009834735011   -2.01025718851335    1.31720259060084
H           1.22848626397753   -2.32156865865131    2.56955879041462
O          -0.69859102652831    0.33820538437595    2.30700096811478
H          -0.36308975198259   -0.55193978186810    2.56324236004724
H           0.21718571430817    0.71663599884782    1.33193047702401
H          -1.49615777335130    0.15945234713566    1.75500626348587
