    19
        -40.92136390
S          -0.73443408305760    1.00765742535883    0.60595306449211
O          -1.93031225165633    0.72523592295035    1.36030803040437
O           0.47226443307033    0.44898638938774    1.24118576009725
O          -0.80525866169617    0.62723459791989   -0.78682846279254
O          -0.52428423837583    2.58125969520888    0.63672829852105
H          -0.92431136801775    2.85471509383380    1.45735495741246
O           2.31568616529174    1.11397389983672   -0.59348485492383
H           1.75295811717469    0.95477093326811    0.18764735067011
H           2.07763520900939    1.98380100646300   -0.91865372539093
O           1.06394206316138   -0.92252236551398   -1.77242951141385
H           1.80398832485113   -0.31598498848632   -1.54897500906033
H           0.27668781315733   -0.33701121733297   -1.69128340296423
O          -1.99850569112906   -1.70745965433498    0.34889106888003
H          -2.28388002225982   -1.51523759685774   -0.54868713397113
H          -2.11124406924862   -0.86344403079550    0.84229351153387
O           0.54276931447590   -1.92470124112351    0.43317531804648
H          -0.47393820573068   -2.04291809337989    0.40332206403024
H           0.84449911450359   -1.64165861465879   -0.57988148447158
H           0.63573803647746   -1.02669715175564    0.92336416089926
