    19
        -40.92003346
S          -0.34099678007134    0.57342354805378    0.57569409333643
O           1.04846978353013    0.28077400803446    0.31507372503333
O          -1.24111596180333   -0.16767029743331   -0.27133315089160
O          -0.65178695685208    0.31395701916787    2.05167286689633
O          -0.60645079440147    2.07572385804771    0.45799532649064
H          -0.41803930770694    2.40497195841190   -0.49059871986387
O           0.65335251058120    0.19122945773308   -2.34647353475717
H           1.04952646202296    0.09396944286386   -1.46286118926281
H          -0.18685660449130   -0.27535573555241   -2.29298748872693
O          -0.75097097953197   -2.68192616404863    0.51288530296593
H          -1.57287488857410   -3.11182994572465    0.75802297488486
H          -0.99587515647208   -1.82307484085674    0.11736083679821
O           0.03535337417394    2.71158596875646   -1.91982755460961
H           0.85009521278233    3.21995663453137   -1.91620632229604
H           0.26583362696200    1.80814165108843   -2.26187205495329
O           0.91499305147188   -1.64748723232376    2.32518865439520
H           0.39696094584593   -2.24739918859030    1.74258777552404
H           1.59405594859756   -1.25999087616663    1.75982619799168
H          -0.04367347607960   -0.45899926597886    2.34585229104523
