    19
        -40.92343669
S          -0.69413498343136   -0.48584502958501   -1.45877504810617
O           0.18714343091062   -1.64576852239591   -1.31635742889004
O          -1.86043331406291   -0.58626740243464   -0.60759860848261
O           0.02691230873311    0.76339898164540   -1.27253395700132
O          -1.19132441261178   -0.48991788656984   -2.95365729559528
H          -1.63507870721076   -1.32933616978088   -3.02419025122698
O           2.19940116746815    0.82699787085606    0.27620555734366
H           1.59495141606481    0.87530919026908   -0.49342570799325
H           1.88114887276938    1.50087079683231    0.88702786827745
O           1.25999687632712   -1.45072821109625    0.91515690869241
H           0.88284522388163   -1.67653963590734   -0.03372127907704
H           1.79956614540721   -0.59084383121702    0.75475044633710
O          -0.38095468224749    1.98329784359024    1.04979507215146
H          -1.10463146532331    2.61126554462321    1.05166950481082
H          -0.32446068987404    1.63165839243698    0.13388903040578
O          -0.87832369081139   -0.54281282631765    1.81677970420200
H           0.38010098658501   -1.14159200220709    1.43788917221490
H          -0.71944416870448    0.42419954940121    1.83204575408738
H          -1.42328030385829   -0.67734665216753    1.00505055785052
