    19
        -40.92003346
S          -0.70399155830823    0.04824334123783    0.52781422690227
O          -0.59221086678992    0.43459038187927   -0.85869776150503
O           0.51129255351518   -0.52036583992767    1.05378388936664
O          -1.14140242067138    1.25411952264595    1.36269024324865
O          -1.87734602580018   -0.91359153397810    0.72618531120249
H          -1.73248759328250   -1.77700499705684    0.19958801307471
O           0.85404095292513   -1.75096947390675   -1.47465818591314
H           1.38608349899313   -1.73104453731158   -0.67276419759328
H           0.43173356085942   -0.87509805645298   -1.51587791966019
O           2.18018473291786    1.56925914286551    0.89587326486540
H           1.68694274965461    0.72989665116033    0.97465449337642
H           2.58395376586315    1.72788396114846    1.75158484592192
O          -1.38497400804181   -2.92516169652934   -0.75070540806425
H          -1.97539063501493   -2.92990093555511   -1.50808079980762
H          -0.49210525750900   -2.65110933863233   -1.08837025585678
O           0.09938722573831    2.99132280929737    0.01380564070869
H          -0.08534637847248    2.55618477671998   -0.82728957135336
H          -0.74134953825877    2.08331666689465    0.90857625221963
H           0.99298524168159    2.67942914549262    0.28188790886640
