    19
        -40.91873191
S           1.13509715773238    0.41892536914537   -1.20769327406160
O          -0.03563497969465    0.00626054966803   -1.96881271987949
O           0.79021406352192    1.42129716255615   -0.21412993610927
O           1.84603819756378   -0.70683592462986   -0.61567796980664
O           2.13237841172513    1.07520362361464   -2.23546858084628
H           1.57299118700254    1.66225608148733   -2.73449642901093
O           0.22399902854665    0.69481985808830    2.30113914706857
H           0.73366454897258    1.15918929935446    1.60817213296111
H          -0.70416268827303    0.92729350521769    2.06936198538067
O          -1.81181899058958    1.18495518336583    0.68075811765945
H          -2.13931926646090    0.37303731916951    0.27987095352324
H          -1.04303356795381    1.45531294777218    0.15122588970902
O          -1.48899826850434   -1.44408994464562   -0.43507442972247
H          -0.97731660867264   -0.89575186836684   -1.09829506199856
H          -1.78208202353557   -2.22799389614940   -0.90338075151508
O           0.44786967832904   -1.54747691541019    1.25269260316640
H           1.15145692036948   -1.28957081040341    0.52041567286625
H           0.35525901181716   -0.63729650151635    1.83614811850470
H          -0.40660182215749   -1.62953503736991    0.71324455157856
