    19
        -40.92136409
S          -0.54697890510204   -0.61561699470156    1.11523308049762
O          -0.11128465667510   -1.91955130559183    1.54965962206227
O           0.51406785486311    0.39913429080588    1.24120308484740
O          -1.12660605746959   -0.59219490439943   -0.20891788058335
O          -1.68608225044608   -0.14639295072365    2.11708468699656
H          -1.47002271082222   -0.58135538628968    2.93709449009588
O          -0.16575579783378    1.08414516910079   -1.97820710110359
H          -0.34126291357301    1.88663845249391   -1.43873494320955
H          -0.72301877742686    0.40404195119679   -1.53500954527850
O           1.10949906491019   -2.28622267492326   -0.75665215195422
H           0.35403435944141   -2.43076671960564   -1.33321812495829
H           0.74521486845476   -2.30879088979011    0.15731873839525
O          -0.74413486598856    2.52389313607625    0.18808195493977
H          -1.65684149150785    2.47190411534089    0.47695134983694
H          -0.25735833881406    1.85859048270777    0.71020476162142
O           1.84602426814156    0.15434895665173   -0.87086662979275
H           1.48070898891040    0.34292111101224    0.07012347842721
H           1.71056274640937   -0.85758459285748   -0.94977250184986
H           1.06923462453055    0.61285874349443   -1.49157635898937
