    19
        -40.92003346
S          -0.13973330635786    0.70415840776856   -0.51114763541323
O           1.18300672689769    0.49223085686098    0.02019627071588
O          -1.06946498309288   -0.33675945071329   -0.14195380827922
O          -0.68823606306803    2.06263262743858   -0.06832384766183
O          -0.08856685017085    0.86640169471198   -2.03178885126767
H           0.24768539037534    0.01079240085697   -2.47750756078844
O           0.72707105529429    0.66982809783909    2.65403569358495
H           1.01805375398241    0.55094593324578    1.72922338957561
H           1.31755487121992    1.31834098960983    3.04287806769818
O           0.77712729036399   -2.26774732766892   -0.47226099231155
H          -0.03056179629599   -1.78971343385311   -0.21474922126023
H           1.49738322111148   -1.76678661853015   -0.07631032064010
O           0.64634448037093   -1.38994657750715   -2.94788247337348
H           0.79367154153594   -1.86289852210449   -2.08709273532314
H          -0.09270479691994   -1.82686388591930   -3.37831932049698
O          -1.80862760148837    1.23656247257222    2.03861314883844
H          -1.22821806157782    1.89347509600186    0.78819309620505
H          -2.09518950894672    0.40950213234873    1.63268732920582
H          -0.96659534323218    1.02584512703474    2.50150977099174
