    19
        -40.91893373
S           1.50985032803466   -0.56140859273609   -0.65357828917647
O           1.46527250301986    0.03982492405749    0.68827343447341
O           1.46286722975496   -2.00067475340399   -0.60450129712997
O           0.53871248248752    0.05749952323632   -1.53404590510224
O           2.93429345617213   -0.17816276931354   -1.24100277721454
H           3.49662664026158   -0.87274909743418   -0.91156882909467
O          -1.16107307305229   -1.81486615496627   -0.38386854113072
H          -1.26100822754798   -1.25884211097922   -1.16240026767556
H          -0.21739369250565   -2.07398465135993   -0.39421781446140
O          -0.87941167810387    2.15966586423592   -1.00437369249400
H          -0.43128812429096    2.92703640191172   -1.36476153654878
H          -0.37864450389510    1.36663332376419   -1.32791014034234
O          -1.92340940019581   -0.54394802842361    1.78129908969329
H          -1.64122482736401   -1.08945029048109    2.51814746351127
H          -1.72477888289083   -1.06689855550620    0.95883572770256
O          -0.42171151912427    1.45276402622745    1.39032050040354
H           0.45155386403031    0.88843029431186    1.13363747340055
H          -0.70958378496948    1.85653763701238    0.49332169976210
H          -1.10964878975437    0.71259300985765    1.61839370145540
