    19
        -40.91941554
S          -0.32292306639091    1.22155050993804   -1.01080087327484
O          -1.55574427195223    0.47685794540614   -0.82974081436309
O           0.03154299193284    1.95314670193500    0.21159191620142
O           0.76726949077147    0.40412114546856   -1.49367682762515
O          -0.59229524552234    2.31827880025667   -2.10842180550752
H          -1.31718908305306    2.81490444125987   -1.74172001747470
O          -0.52954985534539   -2.10986020319521   -0.79033955138925
H          -0.89073407795619   -1.27290688547354   -1.12037148869754
H           0.38665750987617   -2.13155503632060   -1.07405571201927
O           2.19134602274828   -0.72926190851223    0.35519856431245
H           3.08298744815646   -0.37684072496960    0.33598489504380
H           1.71733231906568   -0.33365235762834   -0.42163120238253
O          -1.56038623890412   -0.98040647833235    1.40670477952957
H          -1.25087715613083   -1.75268979827837    0.89440907799363
H          -1.85391945132349   -0.36353995046190    0.70336218726397
O           0.50814662576477    0.28605630252080    1.97999097095939
H           1.25077097546602   -0.21392491689114    1.48993129447538
H           0.31472133366558    1.09555958488403    1.33561947513905
H          -0.37715628085594   -0.30583718158591    1.87796516178847
