    19
        -40.91376538
S          -0.18862090257630    1.17671451394040    0.37451662249998
O          -0.96192722843438    0.57788070676226    1.47158619910290
O           1.22532766966568    0.86694201487758    0.53649738802839
O          -0.72383455623277    0.80831787401808   -0.91395096678003
O          -0.34538355279711    2.73135048473942    0.51777591733455
H           0.22652180386326    2.99505110560122    1.23346214278845
O           1.51975577568556    2.19233154457357   -1.87856182797035
H           0.60565544759730    1.91805212888823   -1.99790925471742
H           1.79707787226187    1.76292675716192   -1.06256734776958
O           1.45538171923821   -1.71958860119206    0.63311367487684
H           1.46948008243121   -0.73180953368003    0.53762668215906
H           2.13377039552433   -1.93696682959558    1.27600945111869
O          -1.80775101564498   -1.54303847778193   -1.24927983720233
H          -1.52859976178819   -0.59507373980364   -1.23290692360530
H          -1.29409865388298   -1.96177100699129   -1.94405751900206
O          -1.02692024615218   -1.85979476970190    1.13328354262895
H          -1.44355033850904   -1.88442105723729    0.18683795051857
H          -0.01758231247794   -1.97532740593373    0.98910700198316
H          -1.09470219776724   -0.82177570862486    1.38941709401550
