    19
        -40.91326275
S          -1.50483615235551   -0.40534113631281   -1.32934634671899
O          -2.13057815724926   -0.95360679027830   -0.06133542443312
O          -0.68088360422698    0.73987026247125   -0.99528821864906
O          -0.85997283694673   -1.40108634092033   -2.10944720489869
O          -2.75685941038830    0.11764805487614   -2.11413432298022
H          -3.16879558988138    0.79080470013811   -1.57579275743592
O           2.66980912403311    1.07874867543095    0.96408628923690
H           3.16725040458958    1.65176909308057    0.37876768633925
H           2.47306794162885    0.27214323287173    0.46616353334389
O           0.02679496106945    1.46028428576625    1.59477450079227
H          -0.27328260187546    1.49948475684153    0.67428928607897
H           1.00061071863240    1.49987939074614    1.55435062097193
O           1.40060339882947   -0.90590679013471   -0.54862780547255
H           1.30303891453070   -1.59404667218941   -1.21300407818217
H           0.77572711732832   -0.20950769862202   -0.82176304923238
O          -0.30750510418278   -1.11441294886223    1.58478324135981
H          -0.22007224844610   -0.14155545742565    1.81917772484974
H          -1.37428496326554   -1.08755318532620    0.72217035138619
H           0.46016807815666   -1.29761544215919    1.01017599365097
