    19
        -40.92003346
S          -0.57969741819694   -0.44911901522352   -0.48856822353588
O          -0.80200256721628   -0.35970894766968    0.93251331063392
O           0.59052841364279    0.27600309184309   -0.92327495932591
O          -0.46929877050868   -1.91134519475730   -0.92687135089473
O          -1.81831768807808    0.01656639825357   -1.25678392334334
H          -2.00949911838558    1.00343384439252   -1.07438529533277
O          -2.04535768029940    2.50276611613402   -0.76944641936609
H          -1.29278367756776    2.60152242196034   -0.12897425864088
H          -1.81192061122162    3.01368103179224   -1.54836676201940
O           0.09125189628485    2.32245745358590    0.75321223682383
H           0.53448966220675    1.71663283160248    0.13377458652283
H          -0.18337926520698    1.76585884121558    1.48893079154690
O           1.36517888257215   -1.61484110743965    1.88360445747941
H           1.09835666631896   -2.31355716024333    2.48446878220635
H           0.55604285128468   -1.11180526556408    1.66841328730741
O           2.03472693811036   -2.09454472261138   -0.65636116276579
H           2.01642532746920   -2.01835678534853    0.32422317995269
H           0.53026362239294   -2.14479226231919   -0.91335015800425
H           2.19499253639785   -1.20085157960785   -0.98275810924195
