    19
        -40.91326281
S           0.70021363669705   -1.17055302127840    1.52818443521710
O           0.03539427356423   -2.23488157144117    0.67663892342135
O           1.24152973573746   -0.14039768384987    0.66340861010885
O          -0.12951778237737   -0.69708463932417    2.57858324403745
O           1.90558897111464   -1.95450910249907    2.15224871354253
H           2.45394021775790   -2.25506229102245    1.42997014517024
O          -1.12726466073798    1.13482562431456    0.72402033742649
H          -0.19516321645565    0.85079634167687    0.74717040208585
H          -1.44577870167715    0.99605644642783    1.62054603974416
O          -0.45209227672002    2.54088787540370   -1.60052575215484
H           0.04804303704265    3.32260739110233   -1.36137412544476
H          -0.89171197093681    2.23211828182226   -0.79512142983218
O           0.68240653584763    0.08339860464128   -2.05056745723319
H           1.15216291826723    0.05237664997947   -1.20366792256799
H           0.35130396287212    0.99724469486080   -2.13291632133073
O          -1.38125108020063   -1.03092768225717   -0.93668525808027
H          -1.63700513909967   -0.24149593209508   -0.42247267212294
H          -0.66633774185966   -0.70351934967864   -1.56172453876570
H          -0.64446070891309   -1.78188063684886   -0.05571534333090
