    19
        -40.91833238
S          -0.92365815414851   -1.24005712441607   -0.76785985754760
O          -1.72436865860623   -1.84400844971946    0.26775932436778
O          -1.38583601428181    0.11740722108276   -1.09704932114775
O           0.50392783536219   -1.26256753000531   -0.51638724352335
O          -1.14953212187081   -2.09714471154452   -2.08092601890923
H          -2.08787577145183   -2.26031898763180   -2.07674574186698
O           0.13849436948404    1.70779807547070    1.85368006240842
H           0.04542152344164    0.72696020902324    2.01046036785269
H          -0.61137866294980    2.11746852730324    2.28903657040920
O           2.17791879287107    0.54222844140871   -1.32421989397673
H           1.61722365797310   -0.25321921854964   -1.13489971454713
H           2.92909630690574    0.49291630023821   -0.72944940839209
O          -0.15463293502694   -0.87702524944498    2.14510182613453
H          -0.87766519495536   -1.24425867258521    1.59340307016503
H           0.63621673627531   -1.29384792519182    1.79102539880272
O           0.17457919023318    1.96410509129601   -0.67298232409897
H           0.18719607965111    1.95031878256341    0.35711281813469
H           1.05608998464804    1.54575535358762   -0.98536106640511
H          -0.55121695360473    1.20748987710366   -0.92169883784043
