    19
        -40.92003347
S           0.22542065109871    0.83218228818629    0.18191685646399
O           0.35556432484322    0.11820055005866   -1.06607189008603
O          -0.39625499802605    0.04671475589541    1.21797629675298
O           1.60022787943891    1.33047901322571    0.63359128236633
O          -0.53233750186631    2.14525696466272   -0.02506035566523
H          -1.48328147888497    1.96821773681218   -0.35384422361041
O          -2.80964269835819    1.49534856908359   -0.95331995126653
H          -2.71217044942631    0.50764726336177   -0.91776051975135
H          -2.86643030147084    1.73245646097235   -1.88220026253288
O           1.40776880193654   -1.90549384272397    1.55123029997303
H           1.65539391578520   -1.96452202664219    2.47623812152682
H           0.66321410569775   -1.27501629669213    1.50443398875174
O          -2.06838320396596   -1.02338188580130   -0.80261581855403
H          -1.16551468165449   -0.82046624761098   -1.10398592877514
H          -1.98145415580555   -1.19305851398598    0.14086511426617
O           2.91368973170771   -0.63618012249041   -0.25175932598840
H           2.28354981010804    0.63924356435116    0.30327891328414
H           2.54035844231237   -1.27963350290495    0.39189279253556
H           2.37028180653380   -0.71799471775373   -1.04480536968741
