    19
        -40.91940430
S           0.25539144286775    0.99905894566232   -0.27658287817534
O           0.35964465453637    0.57032851072822    1.12278614749879
O           1.04570316871109    0.16022649853501   -1.15296958104405
O          -1.14812925511013    1.04521299805262   -0.70003357932514
O           0.77434823948648    2.46293086098205   -0.35955239005687
H           1.61903601277254    2.43681011127880    0.13739085298292
O           2.64957321144549    1.85045333238865    1.38418192790548
H           1.94922794285568    1.17710545053404    1.48632709892630
H           2.67610490701348    2.34822569076559    2.20477292536832
O          -1.24192783191687   -1.41736143034788    1.63830382889511
H          -1.82573380797846   -1.10762072781908    2.33393299931270
H          -0.55931846421744   -0.70718337068394    1.51453475596253
O          -0.02888655036829   -2.01660933595259   -2.02187994745814
H          -0.03016366137118   -1.94541140217403   -2.97882276646351
H           0.50921501109633   -1.24525502402390   -1.69082286387740
O          -2.06214035518206   -1.24110993736118   -0.75330632099299
H          -1.31821859596333   -1.69306498152747   -1.32004586148053
H          -1.84160921384517   -1.46848650029770    0.22493369067467
H          -1.78211684481092   -0.20824969874978   -0.79314801866165
