    19
        -40.91892662
S          -0.74997240527304    0.64457929803045    1.03841849199753
O          -0.65070299439034    2.06762899046304    0.79551753357894
O          -1.44294165429560   -0.04084441044312   -0.06865746733272
O           0.50139532627824   -0.00311634503459    1.34453670986257
O          -1.68368357640267    0.45284325989829    2.30021187342700
H          -2.37731381878653    1.09540707889335    2.18331201062590
O           1.75753427568813   -1.60177596742535   -0.50473347584639
H           1.86163118217909   -0.97447598247786    0.22852331590200
H           1.10878311014151   -2.25208770877156   -0.15231584513205
O          -0.38237198907437   -2.50093600689214    0.82002070148908
H          -1.19421494831035   -2.25509923107850    0.36690275794040
H          -0.12815182465662   -1.70604654792446    1.31791972674022
O           0.96383687271761    2.19707107474719   -1.23581425688853
H           0.71853786416610    2.96494066936040   -1.75664332858485
H           0.42462228981582    2.23969330894460   -0.40489920170742
O           0.24954232131002   -0.15523086991700   -1.87862717142800
H           0.62466851288316    0.79151264271350   -1.77457850040302
H           0.95486202299657   -0.80822304671829   -1.41679737168545
H          -0.55606055698770   -0.15584020638457   -1.20229650252269
