    19
        -40.91793122
S          -1.30983735784121    1.08400281992011   -0.44423451242276
O          -1.24086233211256    0.59858725431675    0.94368301197368
O          -0.89269148806654    2.46290150702606   -0.55357029102073
O          -0.61123533422558    0.19070338301406   -1.34517159762661
O          -2.83829489201801    1.01601362125416   -0.84351014206519
H          -3.24785130842203    1.71468091962660   -0.34042827093631
O           1.60740700463081    1.68358243477663   -0.63788580816046
H           0.79083771916447    2.23264733953234   -0.62485228925853
H           1.42862797093677    1.03043224958169   -1.32470914901003
O           1.49188894369297   -2.04595373894644    1.06927914292334
H           1.25352002994237   -2.57726783419373    1.83161664855448
H           0.78713331597265   -2.21247911997523    0.38488124684812
O          -0.43358091717022   -2.32778752393678   -0.67678203917958
H          -0.27930642164324   -2.78264515392676   -1.50692298013106
H          -0.60159104797997   -1.38492230369772   -0.91480388380568
O           1.14461962296381    0.42809867680902    1.52004204309949
H           1.36317518000745   -0.57229965622323    1.36766989329074
H           1.50387627417143    0.95509826348135    0.71001666087386
H           0.08416504799268    0.50660687155407    1.38568231605827
