    19
        -40.92136362
S          -0.47835146798794   -0.56474123502526   -1.17141396589089
O          -0.53929083717706   -1.28945435068687    0.11035346839607
O          -1.78857344856008   -0.25035663779882   -1.68433450437739
O           0.41313791235823    0.56946765299982   -1.07952725118544
O           0.19015923001899   -1.58433811697026   -2.18852794315116
H          -0.54605283303842   -2.05922596288564   -2.56373890336499
O           2.08262051935603   -1.47638873323777    0.65441246163719
H           1.12872004822985   -1.58521449603147    0.48012226350212
H           2.52362539106234   -1.62461536248405   -0.18388315093504
O           1.57645691344094    1.07986363802060    1.21152073433498
H           1.31658991970528    1.11472189670693    0.26246038409414
H           2.01758792807899    0.20424081360708    1.27850103441726
O          -1.94574123532761    1.80109033550036   -0.03695246728304
H          -1.33596518481001    2.41185657000153   -0.46028338574872
H          -2.07239728084071    1.07158417182251   -0.68512122143564
O          -0.75828071315846    0.52573475527371    1.82797586615435
H          -1.31213897397984    1.14936795657906    1.23449357379957
H          -0.75472368054447   -0.34095009037543    1.27684729359052
H           0.28261777316795    0.84735719501606    1.71709571341448
