    19
        -40.92136400
S          -0.24256592172996   -1.36534407968545    0.03891201727322
O          -1.43189428221253   -1.93826694573697   -0.54113686884781
O           0.64460012455178   -0.77098736890766   -0.97661010757228
O          -0.49455890207832   -0.42980571014488    1.11181163816363
O           0.59262483093913   -2.56133396467290    0.66574407477908
H           0.35753692139329   -3.31482131324176    0.13170333663711
O          -2.51474348359653    0.45805124183890   -0.70515263252503
H          -2.71510111887704    0.62307997027862    0.22042642763774
H          -2.26025287211697   -0.49167075802145   -0.74923250952260
O           0.54998553886324    1.96893394070572    0.96796662114475
H           0.07505269021433    1.16971800665067    1.29212194182598
H           1.47904746687131    1.65434649670665    0.90747215202348
O           2.55692042412361    0.25438532844632    0.60406061304172
H           2.69084162240732   -0.37378365625804    1.31581615171040
H           1.99646732939302   -0.19860290532053   -0.05396810677708
O          -0.28507154728629    1.53356015102601   -1.32365573280138
H          -1.26129319170139    1.26466988651524   -1.17029050907098
H           0.08296409714365    1.89857376906278   -0.35924966004618
H           0.17944026369856    0.61929793075602   -1.37673884707427
