    19
        -40.92135400
S          -0.44077203697537   -0.93871727952818    1.16686726636934
O          -1.06062433086433   -1.67336384141252    0.06334756974403
O           0.94127928022078   -0.59675134720109    0.86969229831040
O          -1.23462367786254    0.19950404511189    1.57473159645342
O          -0.38833604773982   -1.93563829041381    2.38900260841800
H          -1.30793775867184   -2.05242687917788    2.60711816638719
O           1.64444452320051   -0.73778071163102   -1.67693393487440
H           1.54204612924656   -0.69848417277135   -0.69888989268397
H           1.93567179820174   -1.62727642061989   -1.88582190293382
O           1.27446106934890    2.05620584679969    0.57129057277567
H           1.24404992406182    2.48572336520178    1.42797761986500
H           1.28542980887746    1.09520951534017    0.74789977948872
O          -1.11733366891429    1.77305354521668   -0.51604871910154
H          -0.21086018709663    2.10171101437285   -0.30467206847172
H          -1.37644769799023    1.29302389546534    0.30592598444369
O          -0.84096827566135   -0.22448074762026   -1.95003237106420
H          -1.06208236489401   -0.90497849797560   -1.19708499758879
H          -0.99140891678555    0.73130272445003   -1.43975978387248
H           0.16401243029492   -0.34583576363701   -2.05460979165711
