    19
        -40.92071447
S          -0.79195521242796    0.95309528576516   -0.81330038767546
O          -0.47669528661885    1.22877185432524    0.56931288592809
O          -0.06502592232038    1.76966845006908   -1.75797648863196
O          -0.63451214962773   -0.48604976474659   -1.10343178629659
O          -2.32630272794928    1.26558439174237   -1.02469325667170
H          -2.39026211296506    1.47875514313689   -1.95128715395047
O           2.18053016069756    1.50360139647678   -0.43942749489981
H           1.96149152502471    1.97771291147993    0.36814912754542
H           1.44599929617604    1.71042600615071   -1.06459822143511
O           0.39709423285832   -0.74295415673604    2.07105184228457
H          -0.32755364675621   -1.38813987643278    1.92989965545564
H           0.00783044433991    0.11073055940070    1.77121898383356
O          -1.54161552006950   -2.09585995515931    0.84160358047147
H          -1.36751583171424   -1.51170314192287    0.07700245318552
H          -1.67344025441770   -2.97714123134983    0.48919927618281
O           1.61547566639541   -0.94599546359162   -0.07407682613855
H           2.02468625797043   -0.01084053708324   -0.21278277082435
H           1.21210071947769   -0.94349468712705    0.94739284294522
H           0.74967035187091   -0.89616717415360   -0.62325626136839
