    19
        -40.92011124
S           0.33408996493229   -0.02740601469642    1.03043397152533
O           0.03533908386317    1.31118899180528    0.51405748728180
O          -0.72644095328622   -0.96724945311496    0.61176109719544
O           1.63735443376237   -0.50457982072218    0.64432544984423
O           0.28671446653690    0.04009236006928    2.58112653360022
H          -0.51073549349559    0.57801834257124    2.77660697952674
O           1.91923729164235   -1.98050856540890   -1.48403801855328
H           1.97175359525968   -1.38614426906817   -0.69374772851546
H           2.13897521985456   -2.86005705080775   -1.16971468265213
O          -1.60968654707573    1.86305487885351    2.47862847727764
H          -1.14897880970987    1.86357858382218    1.61494312178722
H          -1.37863890692462    2.68642563519257    2.91481699875177
O          -0.37207011426291    1.15465841613859   -2.06432552434328
H          -0.13482632519204    1.31158511580907   -1.11656052959057
H          -1.16585914133093    1.66677131200439   -2.23267780984973
O          -0.52504651533038   -1.37513251608396   -1.79072188893422
H           0.44790372888275   -1.70508733013064   -1.82167097673153
H          -0.70346872296406   -1.27032635693859   -0.70811119967851
H          -0.49561623516162   -0.39888226929344   -2.08513173793988
