    19
        -40.92158923
S           0.93376513859108    0.13721536447693    1.13536739104657
O           1.18207606104234    1.44572117494070    1.67628500618293
O          -0.44346186722672   -0.31441592748168    1.37467007167103
O           1.29186309592574   -0.03099012973294   -0.26485043755514
O           1.86763545865998   -0.87463530845782    1.91989781440360
H           1.87397200782159   -0.54268084157111    2.81251348052429
O           0.59149188019303   -2.31434206444673   -1.33809847308303
H           1.04536158208877   -1.55812103780049   -0.89675255850105
H           0.93249930571492   -2.35488924090124   -2.23388137930453
O          -0.68869756530168    1.04924059021499   -1.68976532760692
H          -0.95484071151474    1.72652665853101   -1.02345370591886
H           0.22175119219423    0.81475442204784   -1.42222154468934
O          -1.04306251290524    2.38859069071367    0.55897686163059
H          -1.69798732762015    1.98707343357530    1.13472260377961
H          -0.18291213674420    2.22729717836810    0.99377125982969
O          -1.55212209496897   -1.06993532610342   -0.70764314488563
H          -1.33312377212900   -0.16656269850436   -1.24093667969080
H          -0.85716291434579   -1.73250233340735   -1.03787142714290
H          -1.18704484924558   -0.81734458444050    0.24927020931497
