    19
        -40.91793149
S           1.74581823554861   -0.08524314138157    0.18365425859782
O           2.15682116212840   -0.48681097455148    1.50931593943395
O           1.06166106292939   -1.17427911742784   -0.53216467096559
O           0.95806363751809    1.12995028921062    0.16080570632502
O           3.05613339886031    0.21524328978613   -0.64888772678991
H           3.62100124215742   -0.53475778914333   -0.48358577176759
O          -2.56411877161395   -0.11274604558388   -0.98599316235793
H          -1.89637403077002    0.53994172952771   -1.33393750983520
H          -2.85314955671283   -0.62673399315111   -1.74269310642646
O          -0.25046818353208    0.04067027879344    2.39841339755415
H          -0.26136659579507    0.91299549211537    1.98712991673281
H           0.69335585927662   -0.23089441007051    2.33640469957403
O          -0.68291591719295    1.48977825133845   -1.83906613637717
H           0.01020990123528    1.33757723161679   -1.15327511456910
H          -0.82190802979787    2.43839390834623   -1.86296826493259
O          -1.11327225083234   -1.49659445261531    0.57115584272381
H          -0.17789393393646   -1.46691582954215    0.04875219074607
H          -0.91044628982879   -0.92965281424474    1.40815919201629
H          -1.77115095964615   -0.95992189301934   -0.02121968968289
