    19
        -40.91907731
S          -0.54910988190933    1.43408897170847    0.65093394524992
O          -1.64664457726038    1.97374771502340   -0.11706047266765
O          -0.85223409148810    0.19971696786197    1.33801175992277
O           0.67214026294717    1.29114363127571   -0.16994915791413
O          -0.18231134217388    2.50402153577160    1.75848417525690
H          -0.34084516993046    3.35085439299179    1.34954641607819
O           1.62694327873782   -0.69699702196772    1.45243606504625
H           1.87692655641320    0.11017305719246    0.98424246345937
H           0.69205536489797   -0.53110550099216    1.68541495340258
O           1.30819883595839   -2.35124286523221   -0.53678691253386
H           1.46003766376368   -1.83655229944717    0.30869383065909
H           2.16814163496656   -2.65064796851793   -0.83745048256442
O          -2.21826224132808   -0.44020472553690   -0.96816331220713
H          -2.25418325052298    0.52895242367955   -0.80594575513988
H          -2.13705605705723   -0.81477764341795   -0.08141849223969
O           0.16139146598727   -0.49607287921247   -1.81320714179962
H          -0.85585874826360   -0.57313908207792   -1.60974259859699
H           0.44949113979992    0.31989241483187   -1.20867934406691
H           0.62117914648580   -1.32185113401128   -1.37935992905687
