    19
        -40.92136408
S          -0.24652182585958    0.88433431456636   -1.03933129517316
O          -0.59108417168372    1.22017822258187    0.35351838777210
O           0.78792420252487    1.73819823965978   -1.56826370598042
O           0.02099301310662   -0.52967920055501   -1.17605370503304
O          -1.56588471446185    1.17950083689008   -1.87196235938954
H          -1.47000064898763    2.08668063833989   -2.14776811348546
O           2.61424662932210    0.30870245025943   -0.31702524498196
H           2.07707345309057    0.96294644231391   -0.81896185807379
H           2.61433087796592   -0.48583581896993   -0.85813265478344
O          -2.38846114941942   -0.70536583319965    0.87119765244272
H          -1.86287496279742    0.10585746493542    0.73728097357015
H          -2.89963124779907   -0.82542313825764    0.06903323468230
O          -0.08849285389121   -2.04824812278198    0.95646728544757
H          -1.02087848959229   -1.82499083205976    1.17234687680967
H          -0.00730954609743   -1.74494439545164    0.02333962693463
O           1.11068335783669   -0.01851724406064    1.71871218610755
H           1.86677705095148    0.07808173096631    1.03491496054481
H           0.39728832174274    0.61224791237483    1.33407112495964
H           0.65182269405084   -0.99372364755818    1.52661663762872
