    19
        -40.92071438
S           0.88294236043914    0.71475647489576   -0.95172862736093
O           0.68704519067318    2.14018621392743   -1.08396929387282
O           1.24831834109963    0.34078624994709    0.42895028026830
O          -0.23283048032479   -0.07869376447529   -1.41276803834519
O           2.13455781559301    0.34153324353722   -1.84073503921349
H           2.67366993187913    1.12703324404858   -1.81655484888901
O          -1.00802825771036    0.33396204739233    1.54385435381456
H          -1.45334852132261    1.05506886209995    0.95836009744572
H          -0.02222181096758    0.39483633215080    1.26426999943563
O          -1.77765441656708    2.00005611605894   -0.21276090592449
H          -2.18322384031319    1.50250206313992   -0.92896100808674
H          -0.88474136181598    2.25028521214250   -0.54918093382601
O           1.17582906248338   -2.29966086588172    0.89666167735645
H           1.35733037961043   -1.36496199812986    0.67387706590655
H           1.68130378156226   -2.49649477011336    1.68668572113261
O          -1.35635093812448   -1.75836955549421    0.26781268214106
H          -1.06675782843707   -1.30546010311436   -0.55747391387528
H          -0.56498460614181   -2.26974527204566    0.53883292225216
H          -1.29085481150774   -0.62761971947269    1.09482779942754
