    19
        -40.92343539
S           0.85554056869459   -1.25681414704943    0.73047291719554
O           0.79831092936573   -1.03339752721981   -0.70548007763767
O           1.43802703625443   -0.14058332571208    1.44460145296002
O          -0.45222444297663   -1.62879522109528    1.27205217730934
O           1.79572453359117   -2.50235519821445    0.94614956475705
H           1.80788183408906   -2.59438779062522    1.89382661116763
O          -1.47932258542315   -0.22099797327844   -1.83412561265667
H          -1.12731003566373    0.58391618596393   -2.22991702781904
H          -0.69164660511643   -0.74835338038838   -1.58584365583599
O          -0.20899955269156    1.83643140353245    0.97161957073056
H           0.11402069996399    2.00751756905131    0.06224416192739
H           0.45925597569866    1.21286540710285    1.34388290749734
O           0.86092413853287    1.50782037489305   -1.47058135017418
H           1.73823370411540    1.85643455672188   -1.63432003745452
H           0.98113782264457    0.56364510730277   -1.22589793569739
O          -2.03110012843491    0.17330307335626    0.61911968263258
H          -1.36696075677890    0.98558426810559    0.82366897183056
H          -2.00090829302134    0.04500749231428   -0.40014687858073
H          -1.49058484292357   -0.64684089472417    0.97867455783961
