    19
        -40.92120613
S           0.49319577290947    0.00958533835591   -1.28752197817809
O           0.62783227109471   -1.20441615546841   -2.04445000330251
O          -0.89831065095089    0.41229402223630   -1.08097301665883
O           1.24035643248684    0.05008436293621   -0.04092435990289
O           1.13566646963220    1.17467336168316   -2.17164124088318
H           0.99236657721488    0.89304250735953   -3.07016733309857
O          -0.72082203149618   -2.56569136463431   -0.18686886714843
H          -0.27416443711781   -2.09547843976345   -0.91721067398358
H          -0.59557515974501   -3.50230457445875   -0.35355267480843
O          -1.41264864189661    0.95463972790530    1.27687353805369
H          -1.35300536825407    0.72161661720039    0.25160671355152
H          -0.69929345078670    1.67171335215685    1.35086928753135
O           0.67515893034858    2.40519752062929    0.95594256326107
H           1.08746927327747    1.58569752125811    0.59736945045139
H           0.67380828453656    3.03977033663007    0.23693133677261
O          -0.14183385495330   -1.08480809733862    1.94902200346477
H           0.64709639571214   -0.76975475599303    1.46867396819673
H          -0.97654379723069    0.08207662569456    1.71139168981309
H          -0.50075300484688   -1.77793793641343    1.35462959680892
