    19
        -40.92139830
S          -1.10454757135738   -0.47589818470521   -0.14987758373339
O          -1.13258160941276    0.85683972610722    0.45040743004470
O          -0.26176319276644   -0.47632489164404   -1.34174530100265
O          -0.67765772462732   -1.48546515355575    0.81572772687031
O          -2.55468314572315   -0.85048695974862   -0.56952815387225
H          -2.78173061141224   -0.14726828676136   -1.21198743802759
O           2.27068332229146   -0.88918123508891   -0.94274924312121
H           1.31802173707307   -0.81358743427795   -1.21495272708083
H           2.69634824797768   -0.07571791384475   -1.22261790237716
O          -2.20322386697035    1.31230499616666   -2.03235973031334
H          -1.96576926357333    1.73414783278458   -1.19623152960717
H          -1.40070060879543    0.85331110328646   -2.31550652128415
O           0.99488377685632    1.31509209379230    1.84160724984459
H           0.16633215795157    1.23553020425374    1.29126671356255
H           0.70649401959502    1.60526821096848    2.70954010484318
O           1.66172624239390   -1.10055896338045    1.49768484501134
H           0.66297975980770   -1.40185336786859    1.28864592825570
H           2.07790882507419   -1.08643674283711    0.54991591692920
H           1.52727951561110   -0.10971504362478    1.75276021503189
