    19
        -40.91899936
S           0.65163297886203    0.36850561769289   -0.95938970226883
O          -0.20830037967538   -0.83629122942856   -0.75915974476893
O          -0.07271898120069    1.55437415070211   -0.55282857759279
O           1.91243602375428    0.20496095130943   -0.27252724857356
O           0.94680808499497    0.43705068879492   -2.48197645911303
H           0.06129279133204    0.34751880351620   -2.89252100333702
O          -1.52354610081061   -0.31713188426608   -2.99738046025938
H          -1.62191924598038   -1.09378327512827   -3.55300632237166
H          -1.32099069031984   -0.63709349028919   -2.09849890192574
O          -1.34227368310512    1.42714634850520    1.68525382883398
H          -0.85622654450950    2.00102692167269    2.28180277936984
H          -0.95330399250035    1.58203148001106    0.78001741028215
O           1.80426896464923   -0.57266559134497    2.18252071554338
H           2.42601453015146   -1.29763992906124    2.27391502608839
H           1.95627971567141   -0.19555963079147    1.27238801821458
O          -0.63711439200244   -0.98851545477540    1.66784371886355
H          -1.04179643007478   -0.03836210001535    1.80166890540418
H          -0.51218287956775   -1.02880292881850    0.60813159506973
H           0.33164023034645   -0.91676943829692    2.01374641254417
