    19
        -40.91899912
S          -1.11171339981974   -0.14914983974882    0.46605599830189
O          -0.65603306858165    0.11107708357631   -0.93259912850177
O          -0.36321789683244   -1.25656658590112    1.02227766738383
O          -1.01954806456071    1.05760809136524    1.25568154489305
O          -2.61177663861947   -0.53548996174139    0.36372516262319
H          -2.62385269158260   -1.22886965418023   -0.32904947633600
O           2.18858102095048   -1.20245959652333    0.67055860346916
H           2.55642495467924   -1.01182769708369    1.53646798343670
H           1.21717224362511   -1.37389932335332    0.81809077314206
O          -2.10617718175322   -1.91882777479547   -1.81952982786730
H          -1.39602422840389   -1.25447824088616   -1.74491725573102
H          -2.62113132705280   -1.68874011016181   -2.59637368912004
O           1.18176108253132    2.39205639622091    1.11349284698425
H           0.32549088698347    1.91816369043150    1.30170313920317
H           0.94486148389665    3.30657625686584    0.94625821096257
O           1.71033938825388    0.79860379614980   -0.77886566787949
H           2.06665633448025   -0.02914666120773   -0.25711078005743
H           0.69542362671216    0.52309302173034   -0.96553034060800
H           1.62276347507849    1.54227709924371   -0.07033574429338
