    19
        -40.92136404
S           0.94155182783457   -0.74337674693953    0.69433213722489
O           0.83476647449540   -2.17612851839991    0.81580920111612
O           1.17496721765631   -0.31586103243101   -0.69649462836971
O          -0.16047461863933   -0.01285778261660    1.27882157898212
O           2.24684025549425   -0.30403266859582    1.48433926364029
H           2.82191296955598   -1.06174563762111    1.42583892674229
O          -1.44576421647363    1.72863554547425   -0.19723597775286
H          -1.14586266368782    1.18685415242371    0.56818670231248
H          -0.65155420191773    2.27209308764007   -0.39677215385654
O           1.13920629176944    2.34895996159960   -0.37542151793628
H           1.56886240648191    2.52781338331474    0.46284632874997
H           1.30985060887524    1.40822586900132   -0.57058960484204
O          -1.66050278721619   -2.06685261369855   -0.02435550188902
H          -2.09019130914141   -1.69638091236704    0.75166421456783
H          -0.74971132204310   -2.29646704880960    0.26955905393658
O          -1.12348592376588   -0.21637332496407   -1.69760790478215
H          -0.11920796798457   -0.27646799478000   -1.49172779505842
H          -1.49685291445364   -0.99817007096394   -1.15179784124724
H          -1.39435013683885    0.69213234273738   -1.14939448153817
