    19
        -40.91793145
S           0.50785216302056   -0.94975733532358    1.38850750430717
O           0.38093078296667   -1.62310681318071    0.08569880403065
O           1.88968213219547   -0.73248512684437    1.74986828883745
O          -0.30318842111091    0.24931598944679    1.43721533429659
O          -0.10861259909200   -1.94959173407028    2.44696663238170
H           0.52992614810889   -2.65477340311039    2.50933963376750
O          -1.20825885481965    0.86401631665899   -2.31370552478082
H          -1.72674278034613    0.70897744692960   -1.47701747953865
H          -1.60754273416983    0.30312452411342   -2.98177408999967
O          -2.43792166953447    0.34703243277144   -0.06493430248382
H          -1.66754674484421    0.22083397494512    0.53877887963784
H          -2.99066249552957    1.00998018594989    0.35303785040892
O           1.90997031256433    1.44341148719880    0.28945453509126
H           2.17621907869517    0.70326356113396    0.88046675156311
H           1.09815304102895    1.77255639851444    0.69328026192165
O           1.07781862715625   -0.00038158770184   -1.62645746603167
H           1.49876374412117    0.68458893229651   -0.98118713913470
H           0.79705646042368   -0.79225364964768   -0.96016451306172
H           0.18410379918340    0.39524840990045   -1.96737395121045
