    19
        -40.91908959
S           0.87911084183527   -0.78033146918603   -0.27812713396622
O           0.90284363881972   -0.78475322387830    1.17208929226454
O          -0.53506172102141   -0.67402456680310   -0.74641842586029
O           1.68694913522216    0.26375715765284   -0.85895150125069
O           1.40323666104208   -2.14523331353582   -0.80116871716399
H           0.70371619665713   -2.77977660705430   -0.54062008769734
O          -0.29405682795219    1.24013956615156    2.19173778289851
H          -0.82199433138039    0.90614275229048    2.92005360667581
H           0.26472095681598    0.46853115366768    1.88390066472129
O           0.72528000646201    2.65104841229882   -1.14915881458461
H           1.18264581654797    1.77002006190386   -1.18053012885397
H           1.25605463943479    3.20243103547127   -0.56953130020847
O          -0.94644177505725   -3.24736324249454   -0.32039555990592
H          -1.09441444089750   -2.28908865775759   -0.43365533816148
H          -1.34449414802822   -3.68006664061614   -1.07938523141167
O          -1.30242494031935    1.58194175296273   -0.09534937126371
H          -0.57948848042992    2.15499256293325   -0.57036407685282
H          -1.07969089468244    0.59829916057544   -0.44043652381228
H          -1.00649034305337    1.54333411533142    0.89631086443291
