    19
        -40.92120602
S          -0.34355232689405   -1.25991373679409    0.44307168441647
O           0.81424447074716   -1.13491323500602   -0.44305159949676
O          -0.00211167572492   -1.70460380812353    1.76613574106603
O          -1.17880204049961   -0.07140491402473    0.38393785063747
O          -1.24285842117266   -2.40792012493741   -0.20884943419564
H          -0.92796955424281   -3.21040026922421    0.19636698540362
O           0.29899475776696    2.15540032766978    0.51338355669300
H           0.91940245888629    1.75104855204953    1.15677829759728
H          -0.49960524324608    1.60109230655801    0.59931395155299
O           1.53162629505104    0.44684344418663    2.14225122170557
H           1.02792974920605   -0.38187750117776    2.02584107816241
H           1.73890716286063    0.50669359595027    3.07721734619550
O          -1.51058768681427    0.33926848463661   -2.18127364675169
H          -1.59679662772122    0.18150675364428   -1.21284224269279
H          -1.64747230714138   -0.51090990083892   -2.60338842529696
O           0.89501020609708    1.03174665326366   -1.63346899884772
H           0.72695290351151    1.65656070358047   -0.78388196824374
H           1.01313756804774    0.09160520239041   -1.17366399580858
H          -0.01644970869081    0.92017745623290   -2.06387740209690
