    19
        -40.92136403
S          -0.47140687263239    1.26360307370857    0.32245902534252
O           0.14212957702764    0.88179892613830   -0.92955984144329
O          -1.87048412554253    1.59707315550062    0.22057589256420
O          -0.21197414584206    0.25282726889741    1.36278761375304
O           0.28397584114858    2.56894506591054    0.81918365867224
H          -0.37164829300889    3.03812663299299    1.32738893141486
O           2.42829968909389   -0.09756859132543    1.02617396659629
H           1.51084656707243    0.06029907815668    1.31876076694388
H           2.79527725262061    0.76548490649306    0.82694427237727
O           1.41945832751202   -1.40194835635304   -1.06707996486293
H           2.05370540514005   -1.18771785772396   -0.34765647831419
H           1.04917084645917   -0.51854243170986   -1.29455440105207
O          -2.29502355036530   -0.58824494249627   -1.18948439565385
H          -1.89314235690172   -0.33677433417613   -2.02575105910194
H          -2.32773329351028    0.24011455027976   -0.65910479688810
O          -0.63737331950238   -1.93363112412068    0.20805724819043
H           0.28133416564255   -1.87525715150578   -0.38420754641786
H          -0.50036599530002   -1.15148608105402    0.85923896238577
H          -1.38504572909855   -1.57710179762005   -0.39417185449934
