    19
        -40.91103793
S           0.21647288051691    0.75441498357911   -1.31029177356046
O          -0.10743325352309   -0.21769824298986   -2.33485974104519
O          -0.95024917397348    0.97712028193499   -0.42956624738666
O           1.39490178304633    0.42741656590852   -0.54868473575653
O           0.47634517890031    2.13056297991565   -2.01914666496438
H          -0.32715849264912    2.30342165994155   -2.50096635426327
O           1.21719181577709   -0.46812056997180    1.86284063929025
H           1.41507653829817   -0.05419767081147    0.98042827749782
H           1.88119370141305   -1.14676237886557    1.99954988069293
O          -0.05774698084286    2.32032142377368    1.87342485426758
H          -0.41122677547097    2.01020707952506    1.03030820879241
H           0.52360561858539    1.62826370955254    2.19771162661660
O          -0.47055905290102   -2.39640767817298   -1.00228374201605
H          -0.25261297446503   -1.62404752978900   -1.59289273159992
H          -1.12343591426732   -2.91795056595959   -1.47494562466847
O          -1.10842174968732   -1.01773400437600    1.01358013289208
H          -0.90828543517886   -1.71073892353983    0.27296834489004
H          -0.22751026425187   -0.88330876421129    1.52831142104203
H          -1.18014744932647   -0.11476235543546    0.45451421927309
