    19
        -40.91892673
S           0.96912109438559    0.53530422925350   -0.91181225513419
O           1.20521204168754   -0.48546753014931   -1.90993971362974
O          -0.42823385221305    1.00615251101465   -0.94675755381804
O           1.35718191045356    0.16966728118523    0.42787877512518
O           1.84454478840048    1.78937823991062   -1.31439010099615
H           1.76591686058585    1.84081064946825   -2.26247814901105
O          -0.10359843181234    2.09099563421122    1.63990342888767
H           0.65814931680379    1.62525696255499    1.25606149924414
H          -0.64425000923439    2.33830800630243    0.88399386090362
O          -0.22804520031969   -2.47450069988553   -1.05036396666865
H           0.41707436108231   -1.80291466905919   -1.39072217386755
H          -0.53109491825318   -2.96970163048426   -1.81456205759483
O          -0.52730272457259   -0.45530831757882    2.32982059391258
H          -0.55868144542213    0.52610727199632    2.39436841082371
H           0.36496128724012   -0.62595849811541    1.98850776557148
O          -1.71514500771721   -0.80478105285112    0.15700699607325
H          -1.28978330464589    0.01895208080949   -0.33987699640433
H          -1.23773606090148   -1.59754729238350   -0.28030635540270
H          -1.31829071556388   -0.72475317619424    1.14366800200256
