    19
        -40.92079111
S          -1.06718736006374   -0.05471995159210   -1.03173966683776
O          -1.50030544242294    0.49997448652127    0.25213086127069
O          -0.82337653559916    0.96401394313238   -2.02006089339536
O           0.03403048186436   -0.99098728927965   -0.85339192759210
O          -2.27391006084678   -0.93585906649132   -1.55369278580064
H          -2.93503171491841   -0.29040400526206   -1.78357632336778
O           0.97522403613199    2.48157184961446   -0.81751400242714
H           1.42844491298361    2.99136633809103   -1.49174216900366
H           0.25013223009982    2.00481337346770   -1.27673113353607
O           1.90203701640132    0.37581600793939    0.46823969901488
H           1.46023055816507   -0.22433250644607   -0.16622680020970
H           1.73950768113338    1.27361624262608    0.09409437320583
O          -0.07349461072049   -2.45160273760917    1.32218718151756
H          -0.12548917234361   -2.06576435288177    0.41586472587555
H           0.68394942836293   -3.04026755042323    1.32583039621778
O           0.06151981761195   -0.01749262523858    2.10180378860822
H           0.94448477586702    0.22381087040394    1.55369371969021
H          -0.68296609407001    0.28535534386895    1.42042917667030
H           0.00220006235876   -1.02890837045093    2.04040178010604
