    19
        -40.92071366
S          -0.06995152826325    0.92690557367093   -1.15359854391168
O           0.52352050987523    2.23309986287349   -0.98186507769998
O           0.88015547952046   -0.16105553215271   -1.12023586579187
O          -1.15989315937738    0.69148738584900   -0.18621207074893
O          -0.75388846869295    0.92135063276407   -2.57827374987977
H          -0.99527878530452    1.83268889700829   -2.71770406926099
O           2.08625049077134    1.39826628742783    0.94547662668136
H           1.58124098650790    1.89095708943128    0.25607176661629
H           2.65436687625387    0.79629890248161    0.45577774746846
O           0.53569538025556   -2.07068741730283    0.65086253545904
H          -0.38510109974244   -2.32882150518262    0.43420167023676
H           0.82563843102902   -1.56300535195927   -0.14205428288854
O          -2.00996725462786   -1.85125179185359   -0.10276533858517
H          -2.87574931082285   -1.88418912472551    0.30674277754907
H          -1.80933755039093   -0.90669953226609   -0.25726442568273
O           0.14295429714427    0.04723257385138    1.86925493330200
H          -0.51574790972201    0.38695321088434    1.15971433511676
H           0.35613586104675   -0.96123512100736    1.48661395346592
H           0.98895676455608    0.60170496019548    1.67525707855058
