    19
        -40.92071424
S          -0.23421852781200   -1.19966894261309   -0.83733695196471
O           0.61698206689168   -1.15816576201387    0.36813901600793
O          -1.45614767886424   -1.93422548040755   -0.60250174238084
O          -0.43810854401411    0.13196540563368   -1.35922364480250
O           0.58771357253963   -2.01428867973513   -1.91322237914324
H           0.33050593141154   -2.91896228638068   -1.75955006858195
O           0.55485978897097    2.16612477059279   -0.02398115723312
H           1.49116036711784    1.88137036592619    0.03405216759714
H           0.18557135332303    1.60122636621172   -0.74140007147160
O          -2.64111704032902    0.14587790852057    0.45643748204185
H          -2.36682228729044   -0.73230592077876    0.10058612230482
H          -2.69535136870178    0.72055137943232   -0.31282718077687
O           2.67013090984367    0.55985341293598    0.19306176077860
H           3.32739172512865    0.33897356187259    0.85465289796436
H           2.02451722114742   -0.17453034014653    0.18388723438729
O          -0.47989708740633    0.69238301573744    1.67441502001805
H           0.00796599294623   -0.13749133047388    1.31811987900461
H          -0.04483174989772    1.47562503199450    1.03929157022995
H          -1.44030463499877    0.55568752360235    1.32740002610513
