    19
        -40.92343625
S          -1.44735873517251    0.76732268476356   -0.40253864464833
O          -1.01660444003908    0.52265969560201   -1.78002163828786
O          -1.98635051483327   -0.42570662691220    0.21439279213610
O          -0.39227866489847    1.37757208992956    0.39087105887328
O          -2.60742310388049    1.83001346720949   -0.48658406021455
H          -3.24735589847246    1.39747429983417   -1.04329290176719
O           0.04716737983707   -2.06930484875931    0.29993741932246
H           0.47678136695817   -1.64045267577327    1.06939556083842
H          -0.84475980990437   -1.64833936597012    0.26536237546866
O           0.82594961093270   -0.24058604508581    2.10710488308050
H           0.30044189236353    0.40895677335087    1.58961615298384
H           0.43386674325472   -0.26727308135140    2.98097458172206
O           2.16500131226584    0.92638966906185   -0.22464929324737
H           1.30196822793844    1.36200566300595   -0.06525676264000
H           2.42220854282176    0.56099307746461    0.62905273345872
O           1.03973460242641   -0.86345728014874   -1.64204790242571
H           0.68886001450050   -1.51205647658021   -0.86810225330261
H           0.18561707160833   -0.30053439273742   -1.86007376991176
H           1.65453441229133   -0.18567662689965   -1.17414034143671
