    19
        -40.92267741
S          -0.61614515507509    0.57818387800187   -0.64739989474876
O           0.51099113390663    0.17319802019313   -1.45620362980578
O          -1.64449928202837   -0.44721629138745   -0.55103609877934
O          -0.16857698953192    0.96866090948311    0.71274874203269
O          -1.23395381451064    1.85509923907320   -1.28234278700659
H          -2.00421669205296    2.04023688450190   -0.70036247669940
O           2.91483300646741   -0.13297759342727   -0.49003574794928
H           2.08833126947963   -0.00690534901757   -1.01845443327210
H           3.35949467139393    0.71678125863960   -0.47791756623481
O          -2.94633208724067    1.56175667586342    0.68330489728734
H          -2.28965523351673    1.65664230415424    1.38072954620407
H          -2.86874298804426    0.64398622600004    0.37683034082730
O           0.01886754916069   -2.39131038329197    0.01846947197355
H           0.47063968298825   -2.52941442016547   -0.81857266527473
H          -0.73434446826717   -1.78782732310425   -0.18788138262318
O           1.38910224547791   -0.78645312873036    1.43287617630392
H           0.70377466579004    0.03556522207056    1.24240508918785
H           0.88874716287154   -1.57157144866700    0.99035984652474
H           2.16168532273230   -0.57643468018541    0.79248258211009
