    19
        -40.91941524
S          -1.05019765910174    0.86047431963002   -0.88422851413865
O          -0.88006447427995   -0.42186561348380   -1.54303751864321
O          -1.79586442128732    0.70985221689689    0.37112645189241
O           0.19484235512104    1.57115318881625   -0.69748684649522
O          -1.94938204501114    1.75229693476612   -1.82025149895569
H          -2.72912059854663    1.21905994336614   -1.93951034285755
O           1.85215869178263   -0.78986005454724   -1.13161765561409
H           1.01871087659737   -0.50222217917101   -1.53435449837029
H           2.27575036026236    0.00625348846473   -0.80432390262194
O           1.43722971896999    1.04066386958463    1.51666367207828
H           1.46509334018758    1.82546006841047    2.06704746494412
H           1.03456449448060    1.31851000357302    0.65314836213947
O           0.03143570891676   -2.31550697433178    0.10022179581177
H           0.94289694126506   -2.12287414976433   -0.19467801473954
H          -0.51106005302600   -1.86010622225331   -0.57811330051815
O          -0.42116751111770   -0.66193824916387    1.90839785550540
H          -1.11274693099851   -0.09268368381194    1.35635571834408
H          -0.20836543136231   -1.47345211524883    1.24325799423047
H           0.40528661717767   -0.06321479181058    1.91138276796788
