    19
        -40.92343620
S          -0.91886311178492   -0.89059811854454    1.09900736108767
O          -1.60430742873694    0.37967817596201    1.20637093933546
O          -1.33635145371306   -1.63762178065169   -0.08840117666462
O           0.52733680423914   -0.75242912116032    1.16587064984474
O          -1.33686380212401   -1.76460136416081    2.34133670646621
H          -2.28250094517894   -1.82311565867179    2.24743499257886
O           1.96839468383465   -0.74834809260075   -1.08049527414292
H           1.59228213952502   -0.98889260689101   -0.20830127069946
H           2.38236883369398    0.11131248817797   -0.94607237194169
O           1.47510497289522    1.64676407627312    0.53840267321017
H           1.56448941553604    2.24890923317859    1.27820813388216
H           1.14604794925348    0.79931917798880    0.91174547730645
O          -0.79568584472246    1.71175711359119   -0.89570414683397
H          -1.28898088514519    1.34778376599089   -0.12248617145872
H           0.08146286493339    1.94199074678388   -0.52392788228660
O          -0.36829524534837   -0.45701342366227   -2.04681433623946
H          -0.85005217583123   -1.04844344997203   -1.33092866675922
H          -0.58345091722265    0.53117547925920   -1.70166782278867
H           0.62786413585280   -0.60762665079640   -1.84357783387302
