    19
        -40.92267752
S           0.23679682110384   -0.66315137704303    0.79900068062617
O          -0.96643167825050    0.20119347997765    0.70807662459180
O           0.10751751395764   -1.78365770312075   -0.12080865451803
O           1.43665341024758    0.11193866362644    0.57956992250506
O           0.27014043611931   -1.20596592515153    2.25479099112738
H          -0.55156436031097   -1.74289956785391    2.30856911168748
O           1.39692853407923    2.60009874721080   -0.20469035777317
H           1.29431015159536    3.16998530867081    0.55996459171301
H           1.58299790887172    1.69429614833320    0.14616132208315
O           0.64478654149346   -0.38385840204777   -2.27075959234209
H           1.58527334847422   -0.21017974882713   -2.17520649629457
H           0.43046770736570   -1.05062391024120   -1.57534450318714
O          -1.97475481241184   -2.33232933802994    1.49805985239537
H          -2.42496657876823   -1.50076029927062    1.31758553062781
H          -1.42152422069793   -2.50230398878801    0.71889281622493
O          -0.65179588285309    1.57426561175462   -1.30205644921825
H          -0.91859600280047    1.01309064505633   -0.40986389537217
H           0.11483111153484    2.16514774037080   -0.96466171089794
H          -0.19106994875575    0.84571392537975   -1.86727976398304
