    19
        -40.92079105
S           0.68620836210845   -1.18991309433885    0.56683901633074
O           0.55641335169716   -0.06929176101805    1.50038461625512
O          -0.28566226575639   -2.22509835591291    0.80757986996615
O           0.73203471617246   -0.72092127862217   -0.81114430873722
O           2.11478212679684   -1.81619868122790    0.83555691870549
H           2.01701364475562   -2.23027835351701    1.68734113858603
O          -1.47123406790256    0.74800800113790   -1.12064428941936
H          -0.74253314338958    0.11538677732704   -1.28361864618390
H          -2.07926506721442    0.25645854937124   -0.52012522103782
O          -2.56428143449537   -0.89834250215861    0.62394254620469
H          -1.75041879099003   -1.42300142157454    0.78553179703317
H          -3.26490925043440   -1.53410681636319    0.46701801367805
O           1.98915687741085    1.55001880303416   -1.18852699554834
H           1.70028853317183    0.61144213167264   -1.09513936144073
H           1.97074615428929    1.74953400231917   -2.12672825754447
O           0.02700057309531    2.06854121016227    0.37096654179326
H          -0.72677762641580    1.66032758366831   -0.26327976440235
H           0.24051517643610    1.23830666193448    0.98453835072626
H           0.85092214077434    2.10912853403766   -0.22049195494198
