    19
        -40.91966069
S          -1.18391502758947   -0.84285956639139   -0.90629189318697
O          -0.83065374316964   -1.85851977735474    0.07346078089292
O          -2.04088216078655    0.18845207763480   -0.30133982069595
O          -0.03912418305575   -0.26600991864287   -1.56644550622848
O          -2.06363735199073   -1.54640796835961   -2.00590740197402
H          -2.78282963975491   -1.91411122458307   -1.50158220832704
O           1.11267627056069    2.06508808775604   -0.76265519967877
H           0.64176835678637    1.58114266718173   -1.46092613805260
H           1.84374364893029    1.44430150205031   -0.52393666848022
O           0.51040571287966   -0.66976334313092    1.90319921751469
H           0.01782459016261   -1.21528332768420    1.22328613440424
H           0.30468853781654   -1.05398351607579    2.75752362386691
O           2.36085949334267   -0.19486902523140   -0.20900603303574
H           1.67795529967058   -0.51312923297309   -0.82194329410567
H           2.08643584925601   -0.49504376620528    0.66515278914961
O          -0.50413140914569    1.55018600551536    1.06641499401784
H          -0.04804079269121    0.78613711838707    1.54484434818181
H           0.19484581321728    1.89663539008785    0.32677450765833
H          -1.25798928439217    1.05803782801824    0.49937778809339
