    19
        -40.92158911
S          -0.03327670739022   -1.46060049269231    0.21285358358986
O          -0.48020273796853   -1.96930643958564    1.48085922377198
O          -1.11347305764912   -0.80856189273312   -0.53977563103232
O           1.14107064099296   -0.60353463007323    0.26979660522777
O           0.41362785001078   -2.70751830377135   -0.65705333021412
H          -0.21058574570509   -3.38921406203964   -0.42751870691296
O           1.80122817293757    0.54829483455178   -1.98669244152465
H           2.62076062014264    1.03107301799038   -1.86139032948666
H           1.69616803020401   -0.03893918181760   -1.20127911266721
O          -1.67388878890788    0.34322646396925    2.04547666549419
H          -1.26046004743388   -0.54194657550974    2.02471323786345
H          -2.43096905908002    0.28377573969383    1.45808875473809
O           0.28965344469418    1.80240838745617    1.04932888573483
H          -0.47739383664501    1.48602704241214    1.58321425994449
H           0.86158484553448    1.01237517310870    0.98569775981573
O          -0.48348118308425    1.46492065324117   -1.29395869817960
H          -0.19509533837273    1.79114198596043   -0.31532026165184
H           0.39449742377502    1.25148282650053   -1.75744470527357
H          -0.85976453611453    0.50489546333944   -1.06959577924954
