    19
        -40.91892670
S          -0.07450195333243   -0.59696082214331   -1.30210493160374
O          -0.19873060597563    0.49124996795091   -2.24794332148926
O           1.16467600322911   -0.61597248138111   -0.56505987140070
O          -1.23231839810706   -0.64940596587518   -0.38983212664658
O          -0.13318779159559   -1.94175464985084   -2.13199970640621
H          -0.80208285876966   -1.78534258459245   -2.79223482412400
O           0.00282718733993    2.59465528740618   -0.73667214646080
H          -0.52571636771467    3.29149481246358   -1.13181650559812
H           0.01621567450539    1.84958362836777   -1.39073256445490
O           0.26694560010582   -2.25586050135495    1.38339206959838
H           0.71422748595680   -1.95340341324295    0.57528160150288
H          -0.67108596858176   -2.19458957374795    1.18041897376870
O           1.24993076764112    0.12802104170551    2.08167320068556
H           0.94220024176347   -0.80075034958317    2.18744551493026
H           1.71850482236338    0.11005816834611    1.23211659867921
O          -0.83643862614811    1.20046864840866    1.21476130463821
H           0.03695045562757    0.82697513684990    1.69924586361573
H          -0.51281822938868    1.89933896118020    0.54037586329108
H          -1.12559740892596    0.40219470932802    0.59368501759211
