    19
        -40.91885167
S          -0.71394635088383    0.89596399217395   -0.44302015751244
O          -1.02321360270431   -0.21542413606246   -1.31763773806731
O          -0.40229022890093    0.37481428880196    0.92407003143454
O           0.35865047016308    1.73568949472719   -0.91574768948901
O          -1.97970608001565    1.78410721861688   -0.27844959753196
H          -2.60715581507222    1.20279053124500    0.19666955656950
O           0.59457827582327   -2.21616448991547   -1.21504731002466
H          -0.03836409144393   -1.46721882183465   -1.39867639336183
H           0.04955796666114   -2.98631732252539   -1.04011384846776
O           2.78744699020799    0.91575469516690   -0.54297509371141
H           1.90980627280792    1.29120570510620   -0.81914011291639
H           3.23205235312297    1.61166787679324   -0.05440795441429
O          -2.97196487578461    0.01472242961444    1.41938701416309
H          -1.99897854776970   -0.06335799618053    1.43629335984864
H          -3.23517051125300    0.37722783973857    2.26844800471825
O           1.65779156007449   -0.97073296741657    0.69769682330344
H           1.33481272916760   -1.60348503973230   -0.06059335884622
H           2.26664154352740   -0.27474729782197    0.23329015188093
H           0.77945195227473   -0.40649599049363    0.90995432243350
