    19
        -40.91892668
S          -0.52749051922423   -0.79497008038140    1.07076025879507
O           0.00984658519006   -1.43894638563161   -0.14243252811389
O           0.17044881645214    0.43429203436210    1.35536859137802
O          -1.96785197202371   -0.67151804616466    1.00646311874807
O          -0.19944621599216   -1.79091407022134    2.25451162227622
H          -0.86152125702887   -2.47230586174451    2.18356159603085
O          -2.31384469530643    1.04397813614866   -0.91343177945790
H          -3.14230056257966    0.83252749494110   -1.34929193273149
H          -2.26497456170594    0.46409740519964   -0.11068135341817
O           2.57444700081400   -0.44500373762314    0.49346012391256
H           1.84773441093496   -0.20931146740448    1.09408939056970
H           2.26602162048308   -1.23193918532741    0.03473917425818
O           1.55706269532620    1.76571004304122   -0.60977057412058
H           1.02374518778698    1.84178415111134    0.19743989905214
H           2.23385335758202    1.09339150230675   -0.36843335372917
O          -0.06703214576607    0.34086701467447   -1.86911921400261
H           0.00237743033657   -0.49727768106340   -1.23788262651950
H          -0.98859018369466    0.71926673822196   -1.63345253892585
H           0.64751501841152    1.01627200552877   -1.45589788399364
