    19
        -40.92136395
S           0.29047403640263    0.02833861278060   -1.35597568751993
O           1.64787951434214   -0.03043689685093   -1.83873325581934
O          -0.11854220188298   -1.21751626908269   -0.68366913999307
O           0.00273847872916    1.17758507439329   -0.52771650158916
O          -0.65253119112292    0.13778506654610   -2.62872696268519
H          -0.16401465005087   -0.30156678916955   -3.31909492223083
O           2.54134462015831    0.47889731758652    0.58686588980336
H           2.39080175383961    0.25380608865412   -0.35936760462727
H           2.32091067151684    1.41138998194170    0.66290414477869
O          -1.03509386782645    0.79451152320055    1.84784474745193
H          -1.82805760461349    0.31663660844803    1.51804118896991
H          -0.69166481618458    1.22553953582805    1.03204340291011
O          -2.58247082012419   -0.53038641842327    0.13044450582480
H          -1.76781542687417   -0.91954299559917   -0.24017517734192
H          -2.96381105940047    0.00278809166466   -0.56911241189480
O           0.71965163616801   -0.94525127188597    1.66548661877719
H          -0.04523711503962   -0.20576956271632    1.92266388583958
H           0.38155518142430   -1.26599139908546    0.75042246689836
H           1.55388286053054   -0.41081628823419    1.40585482244669
