    19
        -40.92136344
S          -0.52467951538878   -0.81248825974231   -0.99475893191338
O          -1.78172743257948   -1.49778529569374   -0.82445606278233
O          -0.68765065672760    0.65180527238563   -1.03299604902591
O           0.49421653213085   -1.19190051238158   -0.04235158216218
O           0.02917016875229   -1.20197451523909   -2.43077187151779
H          -0.75495742356009   -1.35894333540713   -2.94921128999943
O          -1.71625383709573   -0.99494906529826    1.76080894467312
H          -1.03114602546996   -1.60822315010927    2.04135930296288
H          -1.91924432497116   -1.24219736334734    0.83004951737489
O           1.88256601385942    1.40910245480420   -1.19676587490782
H           2.31933072648932    0.77167278726576   -1.76433486849638
H           0.92606318171127    1.23513223077829   -1.28137525018483
O           1.67557766250564    0.68144013143557    1.35847644137946
H           1.43652745452338   -0.19203593700549    0.97235063482198
H           2.00843074059251    1.17545072919630    0.57692363090421
O          -0.71778123895977    1.32258952895111    1.38441834810223
H          -1.18497313148365    0.47217555375279    1.71225853207996
H           0.35452025948880    1.14765445763259    1.51515730304948
H          -0.80798914377186    1.23347429792941    0.36521912564282
