    19
        -40.91517829
S          -1.45173800566639    0.28253179928530   -1.21991057194308
O          -2.42091568850472   -0.19685349553474   -2.14649187748566
O          -1.60173032010928   -0.21728215928619    0.15378336627881
O          -0.05583444761318    0.15342000623548   -1.63727991476576
O          -1.70989234718663    1.86480994628517   -1.09052647405446
H          -2.48872230221768    1.96955384774663   -1.62769596652941
O           0.70414391984906    1.74860973465866    0.30244180495713
H           0.53336108895842    1.18700807481197   -0.48285402494534
H          -0.07780817196005    2.30193044115356    0.36785192405837
O           1.41766178778224   -1.90325857381459   -1.01710816236532
H           2.32062714949008   -1.57862482647092   -0.98579801913604
H           0.87877347003237   -1.18494815808465   -1.42972153615848
O           1.30229249068985    0.14903500443328    2.29559145083459
H           0.87833880993395    0.50077976032287    3.08042410859842
H           1.16492794401313    0.81887530724714    1.57387579796326
O           0.06989029435315   -1.73768728117553    1.13086425067472
H          -0.72347308272608   -1.14332786286437    0.72122283570461
H           0.65646476951278   -1.95506224962190    0.31634809506089
H           0.60363263137432   -1.05950930535061    1.69498292325012
