    19
        -40.92136397
S           0.84308378098291    0.57297056784422    0.94017452608751
O           1.31844668637608   -0.47586033482104    0.02053642917848
O           1.48774413016244    1.84084384716286    0.70388029858442
O          -0.60122299629959    0.63248859333938    0.94961336653014
O           1.28720055690619    0.08592998326552    2.38459293659861
H           2.14917692843516    0.47357712815684    2.50714023889835
O          -0.12601802701535    2.29070273892825   -1.32986345754640
H           0.57024802995015    2.27702541592849   -0.63443007700993
H          -0.94447954995401    2.48360464228055   -0.86397144032694
O          -1.94334133292263   -0.97687507027828   -0.62382967925928
H          -1.56494569034347   -1.80127438843102   -0.24624459675557
H          -1.71693950371439   -0.30580443086029    0.06007993629283
O          -0.26608377827076   -2.50961408216819    0.76990124885777
H          -0.35585633600857   -2.45001293169044    1.72250552673732
H           0.44290167745264   -1.88505487336215    0.52589792097932
O          -0.07967375041363   -0.16003924331675   -2.03810447625776
H          -0.98125020627972   -0.56456018038064   -1.56879392171980
H          -0.14738565075208    0.85817528745769   -1.94993721777359
H           0.62839504212279   -0.38622268970337   -1.32914757192731
