    19
        -40.92136327
S          -1.09043297943962   -0.33463716262738   -0.78949152286525
O           0.16025528397890   -1.05668331453920   -0.72269110671124
O          -2.21996711069309   -1.05333865634719   -0.25397223666811
O          -0.95123780615832    1.00872181642696   -0.20050253813500
O          -1.38772359298429   -0.08112841582559   -2.32846921934448
H          -2.33906179880855   -0.06307340272887   -2.38233452666609
O          -0.81797596373957   -1.66860010639717    1.89094902714965
H          -1.48934405586842   -1.51007287697442    1.18909403526242
H          -0.22184160111210   -2.32833367889639    1.52551715854280
O           1.31466948356218    1.82080323652226   -1.38832314314176
H           1.28588879350672    1.49761537278129   -2.29042635094799
H           0.42255064931339    1.67522559666243   -1.02063945366087
O           2.22009329648027    0.08810239946512    0.42204918610362
H           1.65315002940835   -0.54986326668614   -0.06906164563005
H           2.22730003227994    0.86909765845988   -0.17445979374393
O           0.32238304349308    0.61403162728475    1.92522466388654
H           1.26477947854689    0.42123847601530    1.40157773658040
H          -0.26316213409078    0.95522553853166    1.15393269439939
H          -0.09032303764858   -0.30433085114863    2.11202701561275
