    19
        -40.91966070
S           1.70533888566900   -0.13976433816239    0.06629755958754
O           1.05039993277706    1.01302543165121    0.63311337495254
O           1.31253882136409   -1.39107672570083    0.69570626840770
O           1.52015014960488   -0.20918535983682   -1.39139021971026
O           3.25295349678331    0.02955471331376    0.29894902483620
H           3.61453706125788   -0.76520426251247   -0.08107889760452
O          -1.18347496556842   -1.69954988869663    0.21182458441445
H          -0.21647154915894   -1.64578570671471    0.46591363357246
H          -1.37488783445917   -2.62927765913461    0.07477942552056
O          -1.44158563258514    0.67419889635583    1.76513599915604
H          -0.47556116963889    0.76175412172367    1.71520377297008
H          -1.63344105180382   -0.23842481997020    1.52045117513160
O          -1.19727815384088    2.11198925105525   -0.43574114297407
H          -0.26004330415243    2.22195666885068   -0.20523667226888
H          -1.58543534903746    1.75576929981402    0.40056400366967
O          -0.91733525362336   -0.00894378320491   -1.71883373218213
H           0.14381693501146   -0.07953091235872   -1.71041540976309
H          -1.19439038159349   -0.70568793722414   -1.04157290536209
H          -1.11983061697185    0.94418301073029   -1.26366983235482
