    19
        -40.91892671
S           0.50731194871128   -0.99352585486488   -0.90210128780426
O          -0.77505016686492   -0.38074295795434   -1.14491249489718
O           1.61287194584845   -0.38274419444572   -1.60817475134901
O           0.78208293798753   -1.08878712165361    0.54396386991537
O           0.40256887090214   -2.48816572871255   -1.40800995716161
H           1.30691054157487   -2.77862824277104   -1.48275686203900
O          -1.97302886590580    1.20158674830546    0.76119604294437
H          -1.83549176574512    1.04460588252773   -0.18637620103288
H          -2.23710292635135    0.31583293145589    1.09925565477027
O          -1.97673486259976   -1.45707035628855    1.01988000625632
H          -1.18306976467336   -1.76007724331989    1.47054552730269
H          -1.70056010739312   -1.32299479608459    0.09769287438871
O           1.58269355433682    2.06031314467339   -0.72558965878440
H           2.48631791396022    2.38363252550246   -0.72639668868937
H           1.60056022319375    1.18089805146579   -1.18323309255676
O           0.44837531720296    1.22010566710875    1.38712183286055
H           0.91511846117520    1.71399859124733    0.62151540267676
H          -0.59859556975090    1.32037498074419    1.21226958327250
H           0.63482232439261    0.21138799297884    1.15411018994792
