    19
        -40.91892669
S          -1.41386032730070   -0.12933362987407   -0.20591036024016
O          -1.78187511031621    0.87086573566934   -1.18480139888523
O          -0.51303065533038   -1.14500011023925   -0.69164089610949
O          -0.89365461163605    0.49236370919930    1.02633701315985
O          -2.74408819007445   -0.86715267282385    0.22613520826505
H          -3.39368996167898   -0.17273080225926    0.28480791392870
O           0.50874355204730    1.90846593978649   -1.83648443018324
H           0.35980752403014    2.82925165314320   -2.06236074404260
H          -0.38771128526970    1.50180583518116   -1.71752825618582
O           0.26120990638127   -1.97872174496746    1.75632245347752
H          -0.21086701762077   -1.94453437543917    0.90738990572949
H          -0.09074760209742   -1.23950160007493    2.26086745410640
O           2.13928675474316   -1.15826057317722    0.04316707095985
H           1.75108992399140   -1.59705436943245    0.83399932254252
H           1.49592829476090   -1.35380699273429   -0.65628550665666
O           1.40808467293624    1.20163357744723    0.43235017215837
H           1.20078886560172    1.57096166424533   -0.49966816757444
H           0.45168110906313    0.96638739915011    0.80144380345915
H           1.85290415776789    0.24436133736189    0.28185944216967
