    19
        -40.92218937
S          -0.22882471766570   -0.89775830571497    0.69397954114338
O          -0.99911642240263    0.28829728214736    1.05346187048873
O          -0.71109687273092   -1.48907850512182   -0.55423483267500
O           1.19690692157816   -0.59387616991765    0.62186389741242
O          -0.44288258455993   -1.97199763252100    1.79996393358400
H          -0.10205058718934   -1.51838917876991    2.59876659269311
O          -1.59796439250152    1.80491774237685   -0.96281457014050
H          -2.55609219383093    1.84749892015588   -0.99611688942785
H          -1.37309244316093    1.31823968663384   -0.12457264463644
O           1.96350481085898    0.36434215371723   -1.66246102625222
H           2.61587293822565   -0.24801481981131   -2.00936882401954
H           1.75832181505129    0.05434104092625   -0.73951684389121
O           0.61976317120384   -0.03998177778938    3.23612733078505
H           1.32104088480895   -0.04800124674633    2.57107513733364
H          -0.07317714936437    0.51654182419069    2.85698380215094
O          -0.43091911093819    0.10425919891757   -2.41841460275417
H           0.57711640980588    0.28723355256927   -2.27170045318701
H          -0.60888632626488   -0.67506179534081   -1.71719199876316
H          -0.92842414092209    0.89648802009423   -1.97582942984128
