    19
        -40.92139829
S          -0.78657178863967   -0.45675555840699   -0.80034571343144
O          -0.44731711545010    0.94922064595504   -0.99836987256088
O           0.42931109800914   -1.25818838418011   -0.67155259261638
O          -1.67105690070977   -0.64407949185225    0.34688100643948
O          -1.56820534387601   -0.95710376322111   -2.04867832399010
H          -0.93189755879279   -0.80444023643734   -2.77695222745216
O          -0.07180283892502    2.34123375608793    1.16124235552468
H           0.84938813004661    2.60776036350019    1.12143017798134
H          -0.28086313826418    1.92760189189583    0.28220232102407
O           1.43841252464457   -1.07728984736271    1.69887022095496
H           1.56364924981035   -1.97283952681412    2.02006385827813
H           1.13960903893316   -1.16682904672980    0.75093970585807
O           0.68439327364570   -0.21109701612044   -3.19334769504469
H           1.10555440384644   -0.78771082822888   -2.54258714168362
H           0.51828687414815    0.61608715958493   -2.72113056583726
O          -0.61765316045478    0.21438215933670    2.40614172740141
H          -0.41320945213714    1.16984037007962    2.06444288873024
H          -1.20266262528330   -0.17736945587285    1.60910838428020
H           0.26263531944731   -0.31242320121264    2.29164149614491
