    19
        -40.91892630
S           0.35939344974538    0.57750550069779    1.26309645864173
O           0.02646126591275   -0.40260421697360    2.27440055978662
O           1.40264166612238    0.07317337999742    0.35062058719785
O          -0.76856728610850    1.08878195837645    0.52455841518390
O           1.01359419232478    1.80885164548853    2.00920165783106
H           1.55786835416085    1.41647415743804    2.68556996763332
O          -1.23675839108069    0.30891302317470   -2.07315670375111
H          -1.63197064350526    0.57515764384474   -1.22799462610283
H          -0.56105602367151    1.00596285530723   -2.23448359165666
O          -1.10212908985177   -2.29312107508348    0.89562708568173
H          -0.77581955293459   -1.58017840970240    1.50257799575252
H          -0.91370447699913   -3.12673137068301    1.33229779613060
O           0.69661984483956    2.06771743986245   -1.52055842414618
H           0.18470324390302    2.03062985861849   -0.69514557202871
H           1.52331697085820    1.62144212174750   -1.31517589447289
O           0.20459216651035   -1.50864331916721   -1.13766283709635
H           0.82619049727048   -0.88057978666224   -0.56655719680349
H          -0.37116767410268   -1.96022122822520   -0.42186900756196
H          -0.43420849499037   -0.82253017034871   -1.64534666851577
