    19
        -40.91893369
S          -1.23983387776672   -0.25187836825366    1.19138108723028
O          -0.56522631286621   -0.34110124484587    2.46153533969499
O          -1.07615737145008    1.07100563532362    0.56950663748064
O          -0.92740479426243   -1.31094380591828    0.25189666361049
O          -2.79197402197924   -0.38647901545020    1.49721789069107
H          -2.87668490148361    0.01477696864928    2.35686431239884
O           2.39232095273087    1.12110329608296   -0.42861439814144
H           2.59743273454710    1.85632654776728    0.15235612644782
H           2.21047602857979    0.34327288697875    0.16420687739156
O           1.66308663623286   -0.85042712083432    1.14131255383339
H           0.96526288035354   -0.61802488040741    1.78686881131084
H           1.28111045578895   -1.57130991844613    0.63177520969601
O           0.13789727888471    1.33957964711280   -1.55304320678548
H           1.10994918645387    1.30158803576921   -1.19677007569534
H          -0.44221842716100    1.28860450511278   -0.65469564978487
O          -0.46399130359396   -1.01681417050553   -2.27947868882001
H          -1.28092647790011   -1.17016111945022   -2.75764961333573
H          -0.04763523620366    0.43637885777959   -2.00099603520118
H          -0.64548341888875   -1.25549673642533   -1.33367384198903
