    19
        -40.91893371
S          -1.58127777557279    0.33626979869816    0.63788848497020
O          -1.10687045965374    1.04529980384678   -0.56029846073827
O          -2.39781399857088   -0.80364072587640    0.30576036026007
O          -0.48723935699297    0.06572848269758    1.54992604908647
O          -2.52979018852262    1.36372320872748    1.38981368163389
H          -3.37650425636241    1.21240083909489    0.98071000988979
O           1.31665575218934   -1.21970396480946   -1.98533094463897
H           0.79863036337945   -1.67047590088650   -1.26546058366045
H           0.80717380898823   -1.33222973386249   -2.79028756788408
O          -0.17506916530354   -2.18104021308361   -0.05349113914796
H          -1.08547990858485   -1.82279850408061   -0.02874262390740
H           0.18979734305302   -1.95540732474447    0.80741298804587
O           1.28805703807741    1.15314805706033   -1.11232646037836
H           0.23812059734769    1.18634459913713   -0.90722079767386
H           1.40797232089838    0.21116939376987   -1.52687271891173
O           1.93400361254812    0.95987580801735    1.33457031255650
H           2.01308288020082    1.75373619283882    1.86665990219802
H           1.04013682009027    0.57821238420070    1.53425409391018
H           1.70641456278161    1.11938779926592   -0.17696457560280
