    19
        -40.91940423
S           0.26886150340479    1.00104786574186    0.25314169908982
O          -0.05237252893664    0.03546605019946    1.31023706555222
O           1.34520633056987    0.52890238042128   -0.59256824125629
O          -0.92684575376213    1.32567034119134   -0.53158778654375
O           0.69994282835197    2.32697221685069    0.94249279759691
H           1.34146276667918    2.03514867873140    1.62395089927707
O          -1.60588435523619   -1.86072643013967    0.43157902272950
H          -2.39764418066847   -1.82030759107223    0.97207295228802
H          -0.96550431041120   -1.21600879037643    0.83154032725414
O           1.95313001778294    0.91537696512182    2.77803940241442
H           1.29820107011149    0.31610406018298    2.37024123065356
H           1.68729429661816    1.03371243920183    3.69299714048214
O           0.73592357227493   -1.00898295415919   -2.56994154286247
H           1.09353452262943   -0.48601295446814   -1.79991579124783
H           1.03297314589588   -0.55174190410334   -3.35956686137841
O          -1.63699177722534   -0.66198413323913   -1.80125543580930
H          -0.72538225318527   -0.89999038913860   -2.23949577155800
H          -1.72365483815607   -1.28460018480534   -0.98755323293205
H          -1.42225004677141    0.27195434390323   -1.32440788375698
