    19
        -40.91893363
S          -0.12918552692364   -1.60967504730013   -0.64255079235191
O           0.58351426866610   -1.37941277678265    0.62335866169759
O          -1.49467171381954   -2.01773544356372   -0.42977548375490
O           0.04565025274075   -0.49174675195123   -1.54893977732741
O           0.60599100840845   -2.84085009634439   -1.32397591299724
H           0.15613195413333   -3.59263921884491   -0.95026378892995
O          -2.11866416985239    0.53066419871231   -0.13971575147468
H          -2.06841023268333   -0.44658398511971   -0.15437957639192
H          -1.71198483665297    0.79954248635416   -0.96890756184419
O          -0.90938172410478    1.64824510484292    1.90264866066681
H          -1.24955085245330    1.20564051583916    2.68278583589748
H          -1.43541731577649    1.29730710718988    1.13466040363192
O           1.39893927445533    0.85894388455268    1.23710810141618
H           1.11394872850978   -0.14795446148801    1.01143293912174
H           0.51123685472608    1.27560364924001    1.57147748039659
O           1.64093424210463    1.51916456451250   -1.20173323436122
H           1.58393762907137    1.26089122390428    0.31239074983410
H           2.46283533172408    1.33800621801465   -1.66135820306260
H           1.01414682771662    0.79258883823468   -1.45426276016444
