    19
        -40.92136404
S           0.91927990589728    1.01902143594682    0.19539731978758
O           1.98190771151984    0.90534967318281    1.16320743885697
O           1.06386086934255    0.05495650056649   -0.90978865343657
O          -0.40974584323081    0.95781741032980    0.76051962351062
O           1.05796680323233    2.44746671475884   -0.48427085121019
H           1.98963126068003    2.64159014126861   -0.43288707365106
O          -1.17932198168765    0.58240720890238   -2.28666674185097
H          -0.28142436888281    0.41820552889299   -1.94153933217720
H          -1.31121108195439    1.53095900063908   -2.24203417720444
O           0.77856975508886   -1.17444757595773    2.24630023151161
H           1.37386202826288   -0.44668290785917    1.95584468739939
H           0.04840392875150   -0.73930564996416    2.69525889062871
O          -2.11072046850263   -0.78805071176863   -0.19981255075658
H          -1.71445713302438   -0.04958956984415    0.31701474428817
H          -2.07098586516322   -0.44794682567349   -1.12096139964253
O           0.01621985935163   -2.04688358572436   -0.02776425431956
H           0.30193405948591   -1.89322551208715    0.94326440271666
H          -1.00173437813680   -1.65182658073044   -0.10983538385122
H           0.54796494903413   -1.31981470503961   -0.52124692078111
