    19
        -40.91893364
S           1.70112650060957   -0.16413960672243    0.31781073836038
O           1.83613671208194   -0.24297392736496    1.75026162268345
O           0.94328529188612   -1.29943288662045   -0.23004033154446
O           1.18794795804638    1.09538161095721   -0.18446430789879
O           3.16550449050309   -0.30560663999969   -0.27904791666149
H           3.59793795695228   -0.87874725216153    0.34682873321002
O          -0.57241099513143    0.81952914584376    1.94584788183295
H          -0.36551653223374    1.56957740636853    1.38025757559843
H           0.28766108206018    0.36937698597706    2.06969523192239
O          -2.43965993491706   -0.67720499307486    0.87058318132184
H          -2.46680702527860   -1.47955656994057    1.39564073213979
H          -1.80391796730172   -0.06681737632531    1.33194148848436
O          -1.23088977241525   -0.96748383967732   -1.33166691759449
H          -1.83205708709235   -0.87126071665951   -0.49357865917052
H          -0.27024474072857   -1.17779453596819   -0.90783165992640
O          -0.59271745988392    1.38383410914696   -2.04327439348982
H           0.10840030752377    1.39961461961652   -1.34131340526169
H          -0.14124331268234    1.51959850866105   -2.87833146711096
H          -1.11253548201616   -0.02589403206453   -1.71931811691145
