    19
        -40.92343666
S           1.30354738575068   -0.14418320496724    1.06064369078923
O           0.32169531192035   -0.90596560692760    1.80259269885332
O           1.89997709110458   -0.92934537613636   -0.02116735637472
O           0.77859926029645    1.12373383964850    0.57896374710351
O           2.47888247386365    0.21127473988863    2.04760654614949
H           2.79594728149437   -0.64633047419272    2.31318405610089
O           0.14548081407088   -1.18829314078851   -1.75989866251798
H           0.04561923069099   -0.20140909696601   -2.02850458038215
H           0.97291153374629   -1.17874885678173   -1.12041690282887
O          -0.05385891250397    1.34236277723931   -1.94694644490881
H          -0.95367834951753    1.62154241044983   -1.74481938279451
H           0.44239953285822    1.45672743111605   -1.10981466908041
O          -1.86380293027413    1.25701258299959    0.35905600766386
H          -2.31614367073546    1.57344644328270    1.14219301865545
H          -0.90353698344640    1.28500181355699    0.56607435316940
O          -1.55676827370031   -1.39321466020352    0.04830079889636
H          -0.65872217089129   -1.38196543440119   -1.08238975397090
H          -0.92922038012794   -1.40577551836860    0.80985102988279
H          -1.94932824443526   -0.49587064857854    0.08549179541727
