    19
        -40.91836640
S           1.12760080774205    0.66422914220758    1.47557296549106
O           1.13435740503935   -0.80587601485723    1.53717259606553
O           1.94860638624225    1.14254938416519    0.37854055641685
O          -0.21231205156110    1.20467829668636    1.46946047115518
O           1.81302946660429    1.15134718707290    2.81025726618248
H           2.71374018680981    0.86371424879770    2.69610468528358
O           0.42494514593540   -1.83396413583303   -0.58385309264499
H          -0.58678797699494   -1.87603272483120   -0.53561900988909
H           0.75730432679405   -1.48036754733185    0.37261781717475
O          -1.62769291273528    1.08577783582526   -0.67270034757074
H          -2.25727764892308    1.80823165675024   -0.64480978174469
H          -1.10689315067482    1.15522957928739    0.17579368262158
O          -2.13539346612882   -1.54407439219956   -0.63745838266431
H          -2.57074636358372   -1.78476246694124   -1.45740351224257
H          -2.09965407583025   -0.56219325956827   -0.60593978088339
O           0.77910091553576    0.33044786791131   -1.79115812571558
H          -0.08784923299157    0.75512235149153   -1.68056704978862
H           1.35399800182148    0.73574456571843   -1.09338313650707
H           0.63192423691326   -1.00980159435459   -1.21262784073837
