    19
        -40.92135410
S          -0.98434153576156    1.00946184414825    0.66976528879756
O           0.21328216006199    1.79045222586775    0.88867809258393
O          -1.47109300037309    1.12515158693359   -0.70552062152816
O          -0.84295808850414   -0.38168267953014    1.06987533717868
O          -2.11270251861537    1.61430890770184    1.59241692106394
H          -2.09668845902417    2.53933119814172    1.36703330337624
O           1.73559342687175   -1.06057440713842    1.42788940841542
H           0.77179453873869   -0.90009902688072    1.41572105595677
H           2.05994935998177   -0.68139011091990    2.24659466111525
O          -0.79591679225761   -2.15017337454039   -0.89725443782714
H          -0.85608811900618   -1.61814726587891   -0.07142318209734
H          -1.69041975460590   -2.41854941611735   -1.11518872817428
O           1.98117948117134    0.58647182068588   -0.62384068042208
H           1.45718738076481    1.23571974391643   -0.09757494565931
H           2.12840287789145   -0.15045833082055    0.01624450288366
O           0.14827885608764   -0.12309648766263   -2.12726644344977
H          -0.12415470768239   -1.04893159287557   -1.80369859324610
H          -0.57007329803720    0.47990396728579   -1.68115152026986
H           1.04876818229648    0.15230139767417   -1.57129941869876
