    19
        -40.92218943
S           0.02417596058848    0.43083506163490   -1.07422464485221
O           1.17956499693513    0.84694348278763   -0.28588939898389
O          -0.12653144483675   -1.02075006901416   -1.05533854485316
O          -1.19700978034133    1.09923767840160   -0.62472500296558
O           0.25259058993075    0.87794048827339   -2.54760813643721
H           1.07429463816761    0.39970034143276   -2.78488867962594
O           0.68998396121203    1.09897812145737    2.24763462470250
H           0.98675680361522    0.97944926600347    1.30534524973674
H           0.88090029139424    2.01218180202796    2.47229396132556
O           2.32570511434856   -0.70942456635955   -2.22340524546873
H           2.51440647009036   -0.17377939814566   -1.44165284182114
H           1.67409505426926   -1.35849489432330   -1.92635086327654
O          -1.43742902874620   -1.92447061168868    0.99106137173388
H          -2.20802739212648   -2.37762702140750    0.64210720119126
H          -0.88125820413628   -1.68042728445275    0.20288413939555
O          -1.69793555509514    0.48047522279498    1.71200236377146
H          -1.60579282321851    0.83095456222609    0.71256757283339
H          -1.67423606847175   -0.54498804708005    1.57348083425128
H          -0.77425359357621    0.73326586544001    2.10470603934313
