    19
        -40.92136404
S          -0.51677047648145   -0.34835675705103   -1.23889347795604
O          -0.95858549482093   -1.69067302505979   -1.52475100940066
O          -1.24206878153754    0.30260642252113   -0.17116581584042
O           0.93635846932523   -0.27566965042888   -1.00529404431016
O          -0.76679902001992    0.51403401513369   -2.54852800101074
H          -0.69835431855885   -0.11635051297255   -3.25994624572479
O           1.18386630849398    2.32520773699237   -0.38871100694643
H           0.57606476125288    2.80068745077978   -0.95759984873759
H           1.21958653980693    1.41319300580653   -0.73408982189852
O           0.10326785085761    1.32373777161453    1.83128574233261
H          -0.62990058115509    1.07058554951909    1.22470399248632
H           0.64226990123882    1.92673552203857    1.27291504050758
O          -0.90690046661900   -2.26048000795748    1.04780938832617
H          -0.95282669519679   -2.23597716593755    0.06507481082446
H          -1.68208978083927   -1.77821545040864    1.34872493120335
O           1.19507548365403   -0.86183357543436    1.42056424305433
H           1.29422059872153   -0.68355043345611    0.41417435146876
H           0.79051341877088    0.09664795536874    1.76309634211689
H           0.41307227312983   -1.52232885106819    1.44063040954068
