    19
        -40.91893363
S          -1.21450118564824    0.66757817968000   -1.04876282020106
O          -2.09150358992338   -0.42369630094474   -1.38983612354555
O          -1.24131353138944    0.97045680433532    0.39029245779761
O           0.14760147079188    0.53599960123162   -1.52768675545276
O          -1.80389887463051    1.95670132585984   -1.76373776711246
H          -2.74201985582368    1.79216620211262   -1.76305376018387
O           0.45415169184170   -1.84808606100723    1.88189738025952
H          -0.32580931156044   -2.11859778224307    2.37037824017023
H           0.25580373815507   -2.02773302160612    0.92374799257153
O          -0.17335328566691   -2.08119771874009   -0.65449010143024
H          -1.00547577191712   -1.63282717739658   -0.90803706532129
H           0.49401566068478   -1.67112407102928   -1.21274921843200
O           0.75479674944725    0.66104992367109    1.79440720170779
H           0.70911046351690   -0.36520404650994    1.92923620113916
H          -0.13502333999202    0.86339130979358    1.23468238902614
O           2.29541855469268    1.06782836653077   -0.18127820146796
H           1.50160789817069    0.83633504942288    1.11438849897589
H           1.54911993330549    0.85477594709665   -0.79942992004986
H           2.57127256597729    1.96218343974434   -0.38996863843587
