    19
        -40.92071428
S           0.08752778989439   -1.44928369250424    0.29292174417731
O          -1.16378452766036   -0.83311602598240   -0.08370476563056
O           0.66079703850048   -2.29281080855458   -0.73048376249116
O           1.04716650194688   -0.42889973842228    0.75885742078538
O          -0.19247394379694   -2.37435984151848    1.54287631218523
H           0.48060424024652   -3.04651048436206    1.48474327152071
O          -0.05133188668704    1.46761437187532    2.30571306310931
H           0.36596489967729    0.69102738590945    1.88268390831395
H           0.63649462210726    1.91116480720665    2.80423624327922
O          -1.34411924215051    1.78711630735236   -0.00255188830157
H          -1.06815966630595    1.94079663751424    0.92546522025803
H          -1.56848135408854    0.82815184952245   -0.02109393222251
O           0.11513631992878   -0.56625589992032   -2.62140500620804
H           0.40379092922045   -1.32273448086240   -2.05804148974956
H          -0.84597696080362   -0.59913708834850   -2.60958851997018
O           0.84107731422001    1.30024899055404   -1.05831974407125
H           1.11191930992301    0.65497834346029   -0.30756264771339
H           0.60289398187172    0.66080364836399   -1.83004273856450
H          -0.11904536604175    1.67120573872479   -0.67470266873141
