    19
        -40.92136407
S           0.64904023075539   -0.97092820143651    0.74754138422077
O          -0.29973015265571   -0.02982963221300    1.36882055992068
O           0.17713647057450   -2.33267119698749    0.79215378711158
O           1.03498933296379   -0.51729104702226   -0.56959064412881
O           1.95176142595027   -0.89856762626272    1.65245054798935
H           1.81936502666695   -1.57827075546096    2.30725904567329
O           0.96066230153184    2.29081766518113    0.88707209586618
H           1.89799569037037    2.11983667220504    0.99344195641248
H           0.50167342065205    1.50154540712641    1.23152018531320
O          -0.03041776898785    1.68407148896624   -1.51101291395894
H           0.52836778345332    0.87956130611443   -1.41250304287756
H           0.28266429252118    2.25206312927720   -0.77269619034318
O          -1.38334406299143   -1.86549636860671   -1.27945178544433
H          -0.73121721822391   -1.82769010441858   -1.98469086790714
H          -0.89625637978370   -2.20528367790077   -0.49474536078209
O          -1.93203734070097    0.48948509573661   -0.46381553061383
H          -1.89009075560409   -0.43956781950421   -0.89228115695762
H          -1.42272866983197    0.33902816022538    0.41544694218849
H          -1.21783361668180    1.10918750499469   -1.01491902169029
