    19
        -40.92139821
S           0.38537583732167    0.45121558727960    1.05611551768157
O          -0.28350735655151    1.40907028532805    0.18088938970337
O          -0.43260892605249   -0.75046818701908    1.21184444558053
O           1.72567733919993    0.12391744980856    0.57635335162812
O           0.56350279500645    1.10236588237144    2.45749401415961
H          -0.35820144679091    1.29989639090827    2.72232760513472
O          -2.06040381417968    1.20094652713222    2.24117511599273
H          -1.86239211491607    1.62640366040362    1.39586063030970
H          -1.99385659657201    0.25361361830133    2.06331880821058
O           0.13604756364650    1.10804958936860   -2.36405506137399
H          -0.72577833040737    0.89439132071240   -2.72854696657225
H          -0.01785156009726    1.36658315246471   -1.41703768986492
O          -0.20383149117717   -2.32272741196628   -0.82462838348766
H          -0.38136639969682   -1.75477717094543   -0.02358354244476
H           0.02492066600271   -3.19063414296198   -0.48514755418014
O           1.62886695679258   -0.81683857469750   -1.70217530549926
H           1.83025802453067   -0.41328531976162   -0.73877008466792
H           0.92845771757946   -1.54099578582567   -1.47752029035494
H           1.09669114636071   -0.04672687090071   -2.14391399995505
