    19
        -40.92120600
S           0.93358754176098   -0.19902572012218    0.99506754331758
O           1.57582755045410    0.90891670978893    1.64698603227023
O          -0.48119666886552   -0.33536408706826    1.34241095276919
O           1.12811972953931   -0.26994350861724   -0.44407253675276
O           1.62832924851224   -1.52433784532051    1.55417758738560
H           1.90493625660670   -1.28980378414867    2.43485460938507
O          -0.21511564460798   -2.40223571199979   -1.15729411244088
H          -0.06625487356558   -3.08159288463714   -0.49696866288042
H           0.45172959910033   -1.69884206663112   -0.98211592630469
O          -1.94698353859356   -0.58768253420456   -0.63426303834694
H          -1.45891325422085   -0.45191209970977    0.28874372626415
H          -1.46762357096529   -1.41020297919901   -0.98390237721801
O          -0.09042565460724    2.62786784463134    0.46757556771738
H           0.50192125440958    2.03041963923139    0.96372907255452
H           0.26174440024868    3.51290768703144    0.58322411559946
O          -0.65984906251197    1.24434906855709   -1.73523542730699
H          -1.54937683084450    0.22713882363361   -1.19879246182638
H          -0.62629348380054    1.94045986157091   -1.04484363397624
H           0.17583701207359    0.75888361756162   -1.59928105032834
