    19
        -40.91940429
S          -0.86746679739515    0.06520836161464    0.61856854283865
O          -0.27107964923346   -1.24287575552968    0.32487611965932
O           0.09180066928941    0.96627239075174    1.22242700012301
O          -1.46182535615444    0.64573904675692   -0.58990902483289
O          -2.04695127570123   -0.16672883880797    1.60573127954531
H          -1.66106289463427   -0.75077301298696    2.29200348084741
O          -0.60129135650286   -1.99565595681070    2.83016057573261
H          -0.21838399912259   -1.89516925964247    1.93712007557811
H          -0.95541057266497   -2.88668406731299    2.88033180946225
O           1.61716998538830    2.32785058523502   -0.34784742149620
H           1.43488069418479    3.25026781837221   -0.15614997103131
H           1.13575569080341    1.80311392081919    0.35016597297020
O           1.06327821327859   -1.20357164882129   -1.91066469629706
H           0.65287783569437   -1.86581275317531   -2.47073800014054
H           0.63261752558268   -1.28999496803238   -1.02021653413168
O           0.32339253584956    1.20375731517519   -2.19294672233867
H           0.72873516481988    0.25957966357019   -2.23560703230303
H          -0.53780183036396    1.03086081108006   -1.58170036972979
H           0.94076542688492    1.74461634774532   -1.55560509461505
