    19
        -40.91183982
S           0.30668834119880   -0.29949106975022   -1.05437501136685
O          -0.98812664892042   -0.97720488270775   -1.20824188885275
O           0.29036625301551    1.03069335409761   -1.60828526462300
O           0.74736036698774   -0.36359282582119    0.32686651059947
O           1.34627682686622   -1.14872891566374   -1.89092663409841
H           1.15875228661294   -0.93099784949165   -2.80020291497108
O          -1.05175442464998    2.11004526054303    0.34419633570572
H          -0.54705095992852    1.88002421043735   -0.47366402497776
H          -0.39471174618253    2.19764563892470    1.04018693139992
O          -0.86925565495348   -1.06685356460490    2.26490913189191
H          -0.84690670100634   -2.01972560881530    2.37278490640806
H          -0.12394838744726   -0.83485553297101    1.66135020504548
O           3.31704457435812    0.44172711286258   -0.27116675551339
H           3.53777512791374   -0.22186535130740   -0.92698759873277
H           2.43987098792165    0.20563599990545    0.05620784765608
O          -2.41489338051599   -0.00942674712911    0.55417206302836
H          -1.96708407047964   -0.45909511276780    1.36136118514883
H          -2.01040819073680    0.94446095583672    0.52459500529528
H          -1.92999461005559   -0.47839507158430   -0.27278002904841
