    19
        -40.91941472
S          -1.52564170472231    0.23077326779228    0.50236245440919
O          -1.55554932066082   -0.79513141264434   -0.52400210045480
O          -0.89722805303905   -0.27409607764343    1.72926116726377
O          -0.92663629504258    1.46626511920906    0.04988842731190
O          -3.01751914561532    0.55938752598664    0.88456154003727
H          -3.35623320745200   -0.28392379372295    1.16881500794771
O           0.36184094444303    0.23630004486964   -2.26746376056055
H           0.61312004442897    1.13340069856384   -2.03822070801315
H          -0.49384229234205    0.08077964263066   -1.83944229637415
O           1.64383757212292    1.61038723542094    0.36022751284632
H           1.85563503566486    2.30487311060331    0.98664578425254
H           0.66345735348729    1.65638043504862    0.21247937112150
O           0.79891338147362   -1.99961579000703   -0.86644256260612
H          -0.16495996627279   -1.86919462491868   -0.74047070427251
H           1.00186349679982   -1.37888227209821   -1.59347996925889
O           1.46831816250067   -0.79031669676035    1.20629198508687
H           0.48886229393639   -0.63639824262221    1.55845278292985
H           1.30802905101248   -1.38944766822279    0.33269173067098
H           1.73373264929623    0.13845949850653    0.87784434767260
