    19
        -40.91990159
S           1.24909367541202   -0.60549925745447    0.60355433024556
O           0.78650090888002    0.75305597789780    0.84076727505835
O           0.16540725592846   -1.39737129313126   -0.02167310969511
O           2.47475216907645   -0.68026427109115   -0.13608510664664
O           1.47967677047819   -1.25498225569638    2.02262080491911
H           0.76684546102376   -0.92914928899326    2.56795538549338
O          -2.04045356917224   -0.93857953857301    1.36035415983013
H          -1.22946317258850   -1.22678964651847    0.88941077475709
H          -2.67747149878714   -1.64841034957580    1.26424930423106
O          -1.62781804573096    1.40286175503145    0.08052433281867
H          -2.10498034274484    0.71549951262527    0.58573216072324
H          -0.73607229114992    1.40844200543610    0.50033558498616
O           1.66700482099279    1.16169792412283   -1.83282504958428
H           1.65854220598415    1.92419225688277   -1.24652388621855
H           2.13751565780317    0.45852984592854   -1.32837070100770
O          -0.65446192193690    0.13167389294401   -1.82162775585990
H          -1.19329298471257    0.75570708854536   -1.12336521382003
H           0.24010806180342    0.61296539069364   -2.00092729606715
H          -0.36143316056829   -0.64357974907480   -1.20410598415997
