    19
        -40.91833246
S           1.54774980637637   -0.73319582532269   -0.21292629423927
O           0.58187681329675   -0.44375565576705   -1.25436358709723
O           2.51735737637493    0.30982975263885    0.01197476090526
O           0.88207876675511   -1.14118109507406    1.03436399674042
O           2.34997907371928   -2.00794069540634   -0.70361347581649
H           3.10567571761473   -2.02766126847498   -0.12427937217920
O           0.71148172974192    2.18229589303102   -0.38013192195276
H           1.48104579354131    1.62674677204943   -0.13254588206735
H           0.48100356427985    1.87372320552330   -1.26106348976465
O          -1.36902258926843    1.77598321726567    1.15531001525097
H          -0.59298268672166    1.97583004372987    0.56109696307216
H          -1.16307624395936    2.17581435531755    2.00229579391409
O          -1.86523591367239   -1.29519462405704   -1.27957844650634
H          -0.90536168598481   -1.08220593704856   -1.40611283082618
H          -2.35485877056273   -0.68043447750179   -1.82987600333454
O          -1.53759122714879   -0.75831682344158    1.18319473485402
H          -1.83244432163923   -1.03016913963556    0.24060246963536
H          -0.48498629200400   -0.99145880891428    1.18157487959835
H          -1.55268892077610    0.27129110098031    1.21407768974760
