    19
        -40.92343653
S          -0.91052400277770   -1.25877024904748   -0.65680479200472
O          -0.75693412941132   -1.85781652687051    0.66987585117322
O          -1.91825465045451   -0.22006382630078   -0.66662942086691
O           0.36300820199412   -0.80564906877462   -1.19350820482102
O          -1.40398536169397   -2.41415827393513   -1.60730744263450
H          -2.21610348329891   -2.69188667141920   -1.19520652253335
O           2.31675836240229   -0.07002855517525    0.46815019779371
H           2.42585384405381    0.82346706719011    0.12433820861537
H           1.79110779633998   -0.54178938492382   -0.21111117055224
O           0.75554463239296    1.81956612872060   -1.14113073914229
H           0.46580076713535    2.28442239807234   -1.92729269112570
H           0.57927794120119    0.86670335511544   -1.30464287376135
O          -0.94958325014534    1.61643437519290    0.92463648566739
H          -1.52079254672083    1.01638178223969    0.38831338266198
H          -0.30958109847054    1.97165361721909    0.27279396083909
O           0.35863201422719   -0.15416153215633    2.09190405368346
H           1.25935628976360   -0.10593689433398    1.59925424894728
H          -0.20641645655819    0.68041840425141    1.73484518825041
H          -0.12316487999354   -0.95878612505455    1.62952226978648
