    19
        -40.91899951
S           0.49241118689645   -0.69375736086735   -0.86918413733498
O          -0.77108936783470   -0.88332177714235   -1.54426847787780
O           1.07468907991310    0.61183837141071   -1.09907397342538
O           0.33478607763679   -0.91997091468872    0.59881133785671
O           1.46789138342380   -1.79248033644763   -1.37084306658484
H           2.22169692110860   -1.73307786895674   -0.74724323921258
O           0.07722434209133    2.57157073171681    0.24273115949167
H          -0.39771386784070    3.10061415875453   -0.40223333018717
H           0.59025254542113    1.89629027127761   -0.28232612902352
O          -2.82365239739651    0.30618032936663   -0.53591365923160
H          -2.08933451105902   -0.12963794499500   -1.04998934587122
H          -3.52039533477917   -0.34957036115498   -0.46551545812137
O           2.90524060690729   -1.51499969739931    0.81888605767860
H           3.05341293931563   -2.31225581961029    1.33287894679016
H           2.00778750616260   -1.20158071926653    1.03728314939447
O          -1.26463547487699    0.78353933385103    1.39791421943569
H          -0.57468117238767    0.00242743382155    1.16689882077636
H          -0.75949777748357    1.62680132971696    1.05361651734064
H          -2.02439267521746    0.63139084061129    0.71757058810508
