    19
        -40.91907705
S          -0.98558137364611    1.31322689695357   -0.29300845376036
O          -1.35478001330772   -0.09504308660799   -0.55004617616006
O          -1.58129917177887    1.80498279389613    0.92723841337718
O           0.44613480206007    1.49064260170599   -0.37132374373525
O          -1.62091563877934    2.13390338333774   -1.48826683164487
H          -2.52387508433070    2.29611571137468   -1.22773354248941
O           1.74290612238808   -2.11175346619727   -0.17470452221326
H           1.76403492079739   -3.00665666401398   -0.51861826712059
H           1.55643725277522   -1.50753691553970   -0.95113920309958
O          -0.23469537418043   -1.40829063536339    1.23270190844518
H           0.60487248359321   -1.76836324668340    0.73578169695967
H          -0.80845422655429   -0.93699587182009    0.48304749143236
O           0.90372073987517   -0.49916560835718   -2.04315911903502
H           0.99011597897433    0.35696698400415   -1.57932102604195
H          -0.04786255114217   -0.66269036766717   -2.01428846749555
O           0.41406704079922    0.79013386171759    2.29277900714991
H           1.06681115716338    1.13976319625181    1.67230260111617
H          -0.40935493254510    1.27281588440112    2.05598080217065
H           0.07771785784157   -0.60205546139254    1.81177742214260
