    19
        -40.92218951
S           0.53394756822185   -0.30011362577927    0.98224261360057
O           0.70491019764407    1.11367173583417    0.66334058037013
O          -0.87812786984371   -0.66912440569169    0.98339918359237
O           1.30584265330238   -1.14875566219189    0.07456229021563
O           1.10418174749871   -0.55008045089398    2.40888682423168
H           0.54960064266122    0.04003901386187    2.96050526927321
O           0.76173335381328    1.62594979094969   -1.87754104050495
H           0.70001641347225    1.53690088756212   -0.88829131962635
H           1.61612708564999    2.02516813862734   -2.05530305069509
O          -1.81472252855724   -1.26188687242781   -1.36039758208896
H          -2.12723520044325   -2.16765808118499   -1.30734795053653
H          -1.56266128396204   -1.00305349337167   -0.43314420295324
O          -0.77064085961576    1.21021641324297    2.96614216747201
H          -1.35623630797304    0.61296190528801    2.48196486357294
H          -0.35282688431559    1.75242107059440    2.28406392901870
O           0.51428600660825   -0.85861934054248   -2.24588859298604
H          -0.48560706955884   -1.04893743120332   -2.05718990658351
H           0.60422679241025    0.17236162507264   -2.27588814646206
H           0.95318553297243   -1.08146120774952   -1.30411592889860
