    19
        -40.91990176
S           1.42021382480734    0.42434759141733    0.30391949768198
O           0.82607543407900    0.43694207364607   -1.05226138200970
O           0.36801859310780    0.27156745794026    1.29665019761887
O           2.47724512611317   -0.53602918177772    0.42648610187117
O           2.02619176743393    1.86602835275722    0.51078601292970
H           1.28030741259782    2.42661282486778    0.71364259058246
O          -2.09758192464252    0.00161625894366    0.47435431407426
H          -1.29832457888553    0.13745076807299    1.03491961731246
H          -2.14458546097032    0.82752990304987   -0.04617397779060
O          -1.22844666843761    2.09834210415316   -0.98907927126224
H          -0.41261183551744    1.56300857186321   -1.09126015777317
H          -1.44072198780619    2.43931206685547   -1.85945093797386
O           0.76701382713082   -2.50037173278316    0.80496585312767
H           0.42328588636960   -2.24623202873219    1.66669453345557
H           1.55203528548704   -1.92234994169401    0.66430255613824
O          -0.74803255121244   -1.50343935739155   -0.97321634245094
H          -0.07511575234503   -0.75081733669731   -1.19477003887919
H          -0.21663216338240   -2.07443115519605   -0.29828422613001
H          -1.47833424392777   -0.95908723929632   -0.39222492052028
