    19
        -40.92135408
S           1.32182132479777   -0.30639833433128   -0.77261202494645
O           1.58456519890042   -1.11411171419183    0.41926611957777
O           0.43940753785392   -0.97968883590445   -1.69998510121960
O           0.87239992878003    1.03139102898421   -0.42112554938101
O           2.71093532843536   -0.12168782374227   -1.49812398608083
H           2.91275996704568   -1.00322513980095   -1.79610562196455
O          -1.69687562509870    1.43588425769005   -1.11056103890089
H          -1.76408301179878    1.55193342320565   -2.05984781665013
H          -0.74208811549962    1.42917677475020   -0.90322248308302
O           0.01154082009911    1.34582479269309    2.06048006035649
H           0.35330168410339    1.38970175579374    1.13857759734171
H           0.74720692485589    1.56403771061624    2.63560039437116
O          -1.81877964025223   -1.10044578805257   -0.37672916389109
H          -2.05436314422338   -0.15900291300909   -0.55644824376048
H          -1.05618899697176   -1.25752606720522   -0.98239274056544
O          -0.52880679939765   -1.12719616901123    1.73533467222650
H          -1.21277548980073   -1.15843399754610    0.88368491537657
H           0.39211398962061   -1.26569318760197    1.27431213690150
H          -0.47209188152021   -0.15453979331570    2.02989788429764
