    19
        -40.91907671
S          -0.41278637091738   -1.46091541483212    0.69042329694882
O           0.73854384483385   -0.75248806285953    1.20089216088253
O          -1.59715716145595   -1.34058716610501    1.50822405039977
O          -0.67905481793968   -1.08491387019683   -0.71405400821943
O          -0.03111036219823   -2.99656142194771    0.64511212997514
H          -0.86327143518335   -3.46108866882040    0.68004042889186
O           1.95027535671045   -0.43183578508502   -1.12095063911571
H           1.19845100655885   -0.89404579041383   -1.51338291654697
H           1.80478188829878   -0.55647197639046   -0.16214440845442
O           1.20095420059209    2.05271072193825   -1.36823566580773
H           1.34511146439193    2.33607166433817   -2.27290622917850
H           1.62723903708156    1.15141074790495   -1.27539538488438
O          -1.12726218499853    1.35508020602584   -0.67648151436943
H          -1.02468357390793    0.31079882659311   -0.78918770094090
H          -0.21045739635279    1.74450275730753   -0.97540337015422
O          -1.08579572462892    1.20937805992514    1.84462199934300
H          -0.15362841921440    1.03765281043226    2.03124564843036
H          -1.17942340768059    1.46108625537818    0.35716683923633
H          -1.50072596368227    0.32021608623204    1.91041527319835
