    19
        -40.92079124
S          -0.29363328971153    1.14002181120176   -0.90671138128945
O          -0.01822877934653   -0.12114662761641   -1.59776936070461
O          -1.70080006633783    1.44062783464376   -0.84538991908941
O           0.38589282404021    1.19129217527511    0.38038469002073
O           0.39012700143079    2.27099099886580   -1.77742576626842
H          -0.15180413314960    2.30418623193599   -2.55958951552081
O          -0.41448010941252   -0.99642495417996    1.67666684075392
H          -1.33083569156257   -1.07014366093650    1.32022293610181
H          -0.15937750509579   -0.07321905818194    1.47566586178806
O          -2.67678994925015   -0.70137289248378    0.35635148750230
H          -3.53353329757270   -0.47039134459700    0.72029467243452
H          -2.38338885074400    0.07617489558076   -0.16626028486218
O           2.74993759562847    0.05728670933864    0.45295093179215
H           3.10691924263315    0.16601193048414    1.33674144200503
H           1.96956643091689    0.65726573100933    0.38925489270135
O           1.08690984096661   -1.79377219027475   -0.14607090672315
H           0.61594027850783   -1.19293155018516   -0.87294012454891
H           1.91364917558590   -1.24722073627595    0.07332455676657
H           0.44392929249041   -1.63723530360086    0.69029894714992
