    19
        -40.92120599
S           0.22555752711750   -0.85746227986078   -1.05629009778766
O          -1.15827432645459   -0.63403117808899   -0.63597881670301
O           0.50769654938915   -0.35929610579979   -2.37425764175177
O           1.15987507508115   -0.44238407747210   -0.02261413251329
O           0.38783965024230   -2.44512194690449   -1.12208380414215
H           0.15405965956268   -2.66737134552318   -2.01832557381402
O          -0.09730676868281    2.12630828006805   -1.61443255096211
H           0.21389741276977    2.73030804290099   -2.29193021436998
H           0.07746898871808    1.22554782620156   -1.94917004340935
O           0.23789475871161   -1.56887775185120    2.15443338808665
H          -0.05201259461873   -2.45525584767691    1.93074629723809
H           0.76189641102634   -1.24914341432590    1.38401160592622
O           0.49375343231876    1.94976791329865    0.97619688218805
H           1.07851413255984    1.20135519221736    0.75216387847331
H           0.20976870763963    2.27946377468569    0.09695725410847
O          -1.33722276475664    0.37827637920660    1.61345923208844
H          -0.62957080083204    1.16290644131774    1.46278785293835
H          -1.41541239113984   -0.01422613408411    0.63885116126117
H          -0.81842267861001   -0.36076377832435    2.07547532314256
