    19
        -40.92218955
S          -0.61587456977395    0.93306653825195    0.29879314420679
O           0.33132759068837    1.60244569692281   -0.59278212692238
O          -1.41601946849818   -0.05379877008125   -0.41931524022122
O           0.06422891966668    0.32616062696143    1.43837455427108
O          -1.57141757595179    2.03928821260396    0.83386238618595
H          -2.17223495458531    1.53028139767043    1.41699692662709
O           2.32210160794896   -0.80192144575299    0.84391935836774
H           1.44890087740063   -0.44418922770331    1.15953811958783
H           2.99521504491625   -0.35159288811925    1.35867710804169
O          -0.08106163055642   -1.42130806137837   -2.17169523330801
H          -0.49352934077814   -1.25090653001753   -3.02127113884470
H          -0.66342180002988   -0.98806785846822   -1.49107226213837
O          -2.57094175920161   -0.06332496738786    2.06035916392459
H          -1.66553642873657   -0.21608343459367    2.36154192774006
H          -2.60767077335960   -0.45773567530715    1.17892429288828
O           1.92638957328361   -0.03302083452637   -1.52772503197389
H           1.31357469229342    0.77365672463827   -1.20504755698199
H           2.23607790583754   -0.43043531495199   -0.62368809699964
H           1.21989208945324   -0.69251419874104   -1.89839027445571
