    19
        -40.92120610
S          -0.04964298702922   -1.18689780746808   -0.69921098551166
O          -0.84291884925342   -1.32171044003234   -1.88974621096689
O           1.12410287980715   -0.33183037267086   -0.87878374607309
O          -0.78620094849045   -0.82042705769423    0.49951381907666
O           0.53875055679186   -2.63607925823559   -0.37376764286579
H           0.62720886232353   -3.05033278953647   -1.22691047385845
O          -1.09052315272389    1.83186500000610    0.67247035468066
H          -1.29233596068159    0.89160740035177    0.83882239739480
H          -1.21794592268306    1.91731888561241   -0.29656004101762
O          -1.30689993469180    1.30616354993583   -1.92903373174477
H          -2.02682966479126    1.47189424858321   -2.54134963472291
H          -1.11412721997161    0.35032841363878   -1.98560852063384
O           1.05788024486082   -0.69496809831398    2.35487841811373
H           0.27419894179345   -0.88102782789789    1.78796791463292
H           1.66294765394795   -1.42704325884153    2.22191443980727
O           1.35473217041197    1.38453292382153    0.88739478782415
H           1.36643026824840    0.73970761702531    0.05495362986749
H           0.34920413591080    1.74306239756494    0.85511015019849
H           1.37196892611392    0.71383649418653    1.64794508572627
