    19
        -40.91990123
S          -0.90251845685978   -0.06952474315881   -1.21370094061447
O          -1.37346117563340    0.26768004252714    0.14884236124311
O           0.54908053156737    0.01080580655953   -1.26267908961880
O          -1.43020283578794   -1.31855197609890   -1.67881488908442
O          -1.44685840842219    1.08225740415113   -2.14418860467643
H          -0.85903342435462    1.82094282156139   -2.00121555410986
O           1.84146952203598    0.60237764395859    0.92978557187268
H           1.60911877090690    0.42596957201088   -0.01179967140593
H           1.39198208243980    1.45106751191874    1.11243505243116
O          -0.11151174236233    2.46536067037872    0.89963204211328
H          -0.59136158683244    2.93771711143652    1.58183520992695
H          -0.68487902063492    1.71894632584360    0.62250821456750
O           0.39297502771971   -2.68343545916197   -0.36128433056998
H          -0.36795168540122   -2.36541765789138   -0.89996566917776
H           1.17437231851200   -2.42646701993210   -0.85986126571159
O           0.14639842137560   -1.08800849081585    1.59945595321828
H           0.97465309994240   -0.40695756375196    1.46245835704942
H          -0.61561262008065   -0.56249035859411    1.14026643370070
H           0.30334119186354   -1.86227164093875    0.93629082884866
