    19
        -40.92136402
S          -1.37381250220218   -0.02393284084794    0.18291463915571
O          -0.77351447861429    0.50716080656645   -1.05362644584378
O          -2.14757547719225   -1.21735337359087   -0.05355526571232
O          -0.37817508787004   -0.15644500003918    1.22255808339902
O          -2.38578430164513    1.10077938675088    0.66482749314657
H          -3.21124476052440    0.86602539947650    0.25039162360598
O           0.62967841774900    2.56055474710047   -0.04345201257952
H           0.09529789624481    2.93721755018562    0.65774328818193
H           0.04962070973401    1.93694833306542   -0.51974548935291
O           2.10765839681272    0.46376106906603    0.67640595957452
H           1.29001108363315    0.19769407936282    1.15632892310568
H           1.90809533768858    1.38983580381286    0.41480238988154
O           0.06486305892264   -2.64826452034500   -0.10457272562901
H           0.29210461250548   -2.65081546818363    0.82948156638783
H          -0.84468114867243   -2.27501198100486   -0.14811481433596
O           1.34993933515193   -0.80383997915434   -1.31267008426354
H           1.85052668227718   -0.28049350406932   -0.49101684029282
H           0.97587759745814   -1.66813183000057   -0.91086450231725
H           0.50111462858256   -0.23568868814978   -1.41783579610910
