    19
        -40.92453818
S          -1.36794435061690   -0.13845191537843    0.65692513147178
O          -1.19493556915278   -1.27155778895834   -0.24535383129086
O          -0.37534222400247   -0.17097215974328    1.72495536288208
O          -1.39029165255912    1.12915035762285   -0.04233993122239
O          -2.78489879684008   -0.29954993573203    1.33592097700887
H          -2.73937964836346   -1.12596749992202    1.80792825202912
O           1.29591810407099   -1.78559787130405    0.25267549795853
H           0.33581111036079   -1.77122684012134    0.00710703345932
H           1.29443655755958   -1.54504495515367    1.18658594744637
O           1.09774271003872    1.79836173378355    0.88065345076782
H           0.39580972901836    2.35077118086355    0.51736802154951
H           0.60723557748112    1.09776914907826    1.37891030367291
O           1.90716268755661    0.31808665462650   -0.99190499846119
H           1.69681694981394    1.01561076433855   -0.23988236232885
H           1.80282501755682   -0.60754556440132   -0.51752202691412
O          -0.27074077511355    0.36948181854887   -2.25959817881228
H           1.08950486077370    0.36877978755699   -1.64361015264372
H          -0.60155196410246   -0.53664174605551   -2.26324319388687
H          -0.79817831347981    0.80454484035045   -1.54557529268162
