    19
        -40.92453789
S           0.78567862749859   -1.30499707799999   -0.04666893488892
O           0.63165304014691   -0.94847936134578    1.35915929083667
O          -0.51305003789765   -1.54973036716202   -0.66412921387912
O           1.57585879034593   -0.33957270194225   -0.78140225645262
O           1.58541209972041   -2.66623845062222   -0.09416981872511
H           1.06424426731118   -3.27605584883799    0.41997736874981
O          -1.02164649557076    1.91797605978860   -0.01322503667360
H          -0.10459593151443    1.92744330185367    0.49176391537197
H          -1.55152378189850    1.13615543479645    0.43492912332181
O          -1.98479042278255   -0.18850726726425    0.97809081594993
H          -1.47477907994947   -0.35633577559537    1.77922465638231
H          -1.58321144600456   -0.80433180682926    0.31339204243069
O           1.19758769622619    1.57946659515320    1.13301755927933
H           1.86337420421276    1.51114515320423    0.43885298573034
H           1.04669898818235    0.63926150554271    1.40317651734190
O          -0.33459832369914    0.76818883203409   -2.14843632576898
H          -0.79796816952884    1.56314737256823   -0.97227008380954
H           0.51521110681982    0.40090301450803   -1.80151627768159
H          -0.89955513161696   -0.00943862185040   -2.22976632751551
