    19
        -40.92343661
S           0.32400599654258    1.53993299894913    0.60702077811087
O          -1.01396154562353    1.42584247715825    1.18932738586339
O           1.30565493826160    0.78732881474913    1.35854072083960
O           0.32554020902940    1.20245654851470   -0.80761982075668
O           0.71671450007787    3.06291887500502    0.69816981625615
H           0.67860259209544    3.23359676942564    1.63406295996208
O          -1.48721026255140   -0.50306036987008   -1.77043187517114
H          -0.86058307304019   -1.14053436677209   -2.13005483299245
H          -0.95826956797124    0.30299286821246   -1.59555605841800
O           0.53463015830783   -1.69830588855040    1.09424491914620
H           0.87919130432840   -1.80205883544393    0.18252957819294
H           0.92018998370163   -0.84044401289637    1.39330845729551
O           1.34487640850526   -1.17308820746853   -1.41237482505470
H           2.28575221146136   -1.17144821040519   -1.59353220381845
H           1.09769157095385   -0.23877282061235   -1.23428545853633
O          -1.79261805652162   -0.88697192048958    0.72718070047746
H          -1.83563969447436   -0.83575791899217   -0.29841275380264
H          -0.86326271791052   -1.36656783251156    0.94988760323938
H          -1.60130492521652    0.10194103206064    1.00799491918543
