    19
        -40.92453778
S          -1.50448775498594    0.18751228439832   -0.15435982645716
O          -0.91532515534450    0.23111170062991   -1.48811393221119
O          -1.29706142495473   -1.11852068829464    0.46080303291228
O          -1.05323444964549    1.27597715459686    0.68696495317270
O          -3.06305300797473    0.37431233823808   -0.32973470999416
H          -3.34241756428194   -0.36868221393704   -0.85677132772194
O           0.81872238230491   -1.67415296244769   -1.20782169239443
H           0.17014903811495   -0.98443134011577   -1.50113725317006
H           0.30143253994605   -2.23516115704622   -0.61810958336688
O           0.50548467246946   -0.39713074073599    2.19065044956033
H          -0.22046657657751   -0.81352251524644    1.66213891472943
H           0.16701054434057    0.48479655215404    2.38412755489773
O           2.14782142964735   -0.14980953015221    0.29463070867800
H           1.58855165760539   -0.26321784315462    1.17240543598779
H           1.73970949603914   -0.85464714020044   -0.36072680659640
O           1.08096874468388    1.93426194891757   -0.63899127079788
H           0.26716416684467    1.89604235644042   -0.07888951162661
H           1.84885864877233    0.77313444633095   -0.09850173480751
H           0.76017260299337    1.70212733962695   -1.51856339079388
