    19
        -40.92218904
S           0.15631973338443   -1.13607372535275   -0.15781649961125
O          -1.00364153139514   -0.85073612791442    0.68020293547676
O           0.08770616695287   -0.39822488629885   -1.41531638545167
O           1.40659839232094   -0.86472887244920    0.55146392583188
O           0.15887428920454   -2.65780093435112   -0.48532801286139
H          -0.69310752332189   -2.77067927531740   -0.95580809769620
O           1.02206737006412    2.01710686411054   -1.28076687874781
H           1.75152819058481    2.06144946983133   -1.90275513713309
H           0.59633262955743    1.12844121844402   -1.41878177726430
O          -2.14693734557608   -1.96352972646357   -1.54645063951982
H          -2.34767099586138   -1.58233195452537   -0.68163278035835
H          -1.62894534824824   -1.28525006799766   -2.00054390066516
O          -0.76158095011666    1.29375902889404    2.11684361712146
H          -0.83926177396563    1.01793644838703    3.03270998898646
H          -0.96802688839542    0.48928621285989    1.56874998573983
O           1.55317983856973    1.52867819830247    1.13813745276347
H           1.62319586318317    0.48443510971555    0.95246758086538
H           1.39402041477570    1.89733122158489    0.18413191591222
H           0.63934946805582    1.59093179807341    1.62049270639915
