    19
        -40.92120538
S          -0.08483490842639    0.51133294951467   -1.27640474237988
O          -0.71549528175916    1.26395927158785   -0.19184845723800
O           1.02034587917131    1.20187574007959   -1.88187689707932
O           0.18559502809093   -0.85942615923203   -0.87358252712896
O          -1.21223425697733    0.37882019019332   -2.40065897798231
H          -1.06607348521618    1.12984248123827   -2.96802531072951
O          -1.03433365942546   -0.07422843914495    1.86390147565803
H          -1.58412185569483   -0.79283426042303    1.40554282966919
H          -0.93035720158025    0.62337549678212    1.08206429971740
O          -2.08432026253321   -1.66654059105077    0.15302117224301
H          -1.25406298496499   -1.53064935667988   -0.35910543414848
H          -2.79414830355181   -1.32594278739544   -0.39463481629351
O           2.33222247956363    1.22357154653988    0.44285012649247
H           1.86301596790126    1.28986807937535   -0.41114711427349
H           3.24703740116897    1.45253410281828    0.26556176885490
O           1.28244173663472   -0.95156853063684    1.56466786497232
H          -0.04464509090005   -0.47194519891716    1.91664955601073
H           1.06496516136221   -1.26136345808066    0.66513654495435
H           1.80900362709881   -0.14068106655772    1.39788862869371
