    19
        -40.91990164
S          -0.86639775275931   -0.83961512590254   -0.91358816056173
O          -0.01330586845958    0.25419689178279   -1.35148219648667
O          -0.51038521577795   -1.22377678553645    0.47136977107151
O          -2.26780732285868   -0.57794525558409   -1.06308623622883
O          -0.49101979849700   -2.08563082208624   -1.80535939753833
H           0.45682489460087   -2.04292437516165   -1.91267168811517
O           1.73583405041046    1.22615038137534    0.32908923611162
H           2.20673993532595    0.38989817410816    0.51418898430345
H           1.22539867438423    1.01791040609146   -0.48793757361054
O          -2.00356573935301    1.86057731605333   -0.10917135131643
H          -1.49543423583856    2.25516366580565   -0.82430432701136
H          -2.31123103661689    0.99479868638159   -0.46401586449513
O           2.12221239884297   -1.43522898811254    0.57365864202498
H           2.40868044846488   -2.00670055085241    1.28806625183468
H           1.14224981907730   -1.48015446182073    0.55696672151797
O          -0.37017004928048    0.98754608352259    1.62892354130942
H          -0.49296413890231    0.00767894970373    1.32384056918470
H           0.59207819889716    1.21702732081470    1.19439709065826
H          -1.06773725166575    1.48102848941248    1.05111596734540
