    19
        -40.91899953
S          -0.01821664785069   -1.04279921117190    0.62583829905704
O          -0.47013752752385   -0.72051129604639   -0.76068271182645
O           1.32519208780525   -0.54165561159835    0.82716336046427
O          -0.96714526126394   -0.53937102858904    1.59246238958767
O          -0.01475184718743   -2.59205367705672    0.72742489790596
H           0.48686686761932   -2.87314791121432   -0.06623238268712
O           1.79443061381891    1.85750328331548    0.01488230904493
H           1.76125539041822    0.90504820499747    0.30920362745160
H           1.90115729835869    2.37636167793604    0.81540114645983
O          -1.73534736624808    1.90466356587827    1.30941728914499
H          -1.44818696551690    0.98268692720605    1.55648166224296
H          -2.69326358567591    1.90488814135534    1.36297120366277
O           0.93088272769669   -2.74962398453341   -1.72620337560757
H           0.47746380658873   -1.88850710994447   -1.66143951989170
H           0.42555939140200   -3.28369866478009   -2.34357929094834
O          -0.54115060734551    1.74334878967085   -0.91439658825226
H          -1.10139205161584    1.94753383625457   -0.07306869766081
H           0.44404546683789    1.93209149090583   -0.63387008415744
H          -0.55726177029140    0.67724254739871   -0.96177354399435
