    19
        -40.92343659
S          -0.53312546671723   -1.23326917196312    1.01993074113653
O          -0.00516218577179   -0.32658008352177    2.01693040119528
O          -1.37382006237924   -0.56036089136847    0.04245942314704
O           0.52524853287455   -2.01425044596100    0.37764989950079
O          -1.46014203380940   -2.27027361407730    1.75967099359302
H          -0.86109491578431   -2.68853121857039    2.37020685378144
O          -0.36755366680365    0.11779494733389   -2.33420128230147
H          -0.55293454630248    1.06112130219559   -2.26897615609824
H          -0.90431408982485   -0.29642478728537   -1.62681055075767
O          -0.96484424495498    2.05043120059738   -0.21227934912690
H          -1.50429370800282    2.59906861508148    0.35872022531697
H          -1.23485577103921    1.12193628539743   -0.03689621032596
O           1.77693615806830   -0.44446843851302   -1.08392121694186
H           1.02643860798834   -0.21709687223802   -1.74830563659701
H           1.36242542708131   -1.21432488985908   -0.50973936558326
O           1.47928625845433    1.33051026583059    0.64000438941162
H           1.06569508436046    0.76304671898486    1.33339768410553
H           1.79750616283096    0.36684245952068   -0.38852433704719
H           0.72860444968948    1.85482860843832    0.29068347359580
