    19
        -40.91941540
S          -1.11361336963905   -1.03392758337784   -0.55335571921417
O          -0.39476278400029   -1.70891741194676    0.51214890042568
O          -1.96356170013330    0.03554700510076   -0.01629751690923
O          -0.24866555883648   -0.56384729999155   -1.61195728329843
O          -2.09307473916327   -2.08563500040257   -1.19707373565059
H          -2.60454736070535   -2.38623189300127   -0.45232789302082
O           2.17694148447540   -0.78285021930078   -0.01611136129046
H           1.37672418582099   -1.32942169096703   -0.04319672941578
H           2.22915157945497   -0.35012033878106   -0.87076355525415
O           0.82977886806648   -0.00648258794037    2.16345324760064
H           1.65038233356111   -0.10263259232573    1.64209330643206
H           0.28646499868004   -0.75758206851988    1.84376785648360
O           0.68871557938982    1.83253292437307   -1.27908040212808
H           0.37509460451251    0.91790286860872   -1.50236474845765
H           0.33846340348707    2.41189280520117   -1.95826891775932
O          -0.48450874590147    1.75197220381143    0.98340595616846
H          -1.22482340181145    1.09841869300487    0.61920083918753
H           0.11313360608209    1.10595688359764    1.59112854046249
H           0.06270700674287    1.95342531286082    0.14559921564533
