    19
        -40.92136406
S           0.25540688047599    1.28215055841078   -0.46286381849525
O           0.50661052358164    2.37607089110932    0.44219879408894
O           1.31487477769578    0.25924735464267   -0.41125552075732
O          -1.05003476832073    0.67814237366183   -0.31844724953522
O           0.32269183360841    1.87046985142650   -1.93603963721790
H           0.92614199399820    2.60482177997627   -1.86689482222289
O           0.30035301603956   -1.55454492343794   -2.11057458864884
H           0.81430894404432   -0.90403020278775   -1.59585273259261
H          -0.11796423304120   -1.06154214810254   -2.81848525086549
O          -0.39449200068225    0.92899492088546    2.45147785032302
H          -0.00240051807949    1.59124544883712    1.83806250187967
H          -1.33738449563925    0.93902472618221    2.26455135982885
O           0.65847996315834   -1.20091302536552    1.52077468147180
H           0.24694689125873   -0.44412055822566    2.07450238897485
H           1.12337019100544   -0.68161057515167    0.76669097952411
O          -1.20939571445524   -1.90998898870385    0.05576787581422
H          -0.17174216475518   -1.66170138176612    0.97537058041600
H          -1.44794724864150   -0.96667303461578   -0.09512343626688
H          -0.73782386126844   -2.14504308698730   -0.77385993570277
