    19
        -40.92174073
S           0.04579644065579    0.78871744084252   -0.42350133209972
O           1.04466565602109    0.48934745353404    0.67904818723667
O           0.35075319683171    0.00164285913216   -1.59967749094464
O          -1.29641454909262    0.64437337373523    0.05879453635094
O           0.30262839365375    2.27679288117753   -0.74610761055916
H           1.11640209820526    2.29304708834008   -1.31331907254700
O           2.21104249737616    1.70284876224152   -2.40985269071440
H           1.75333364608889    0.84672864718769   -2.31821481889868
H           2.09977914233559    1.98304617315907   -3.32186449357240
O          -1.85720976039428   -0.35050719337047    2.49583916614510
H          -1.88506480580963    0.36789860311743    3.12993103268756
H          -1.82093300004576    0.06187415863045    1.61189090778262
O          -0.79587634211756   -2.20657484878456   -0.53466414026010
H          -0.35385311212185   -1.55360317090711   -1.10208564273443
H          -1.69989892248591   -1.89710200570959   -0.43418865984132
O           0.36803078231800   -1.61692180297045    1.77847615555022
H           0.01585553497228   -2.08855639695516    0.98700372286311
H           0.83127911587373   -0.44144739554922    1.20038632816093
H          -0.43031602227526   -1.30160461685571    2.26210592539501
