    19
        -40.92136312
S          -0.00036741302594   -1.35741633029011    0.28998949202505
O           1.22098044063780   -0.66811458084305   -0.16282627268378
O           0.11466487802351   -1.83937062798921    1.64405962105626
O          -1.17033895189179   -0.54484648456010    0.04425366497006
O          -0.12638235734153   -2.63056390153283   -0.64999847557767
H           0.36099459408385   -3.30873219738507   -0.19075986861385
O          -0.85793569364235    1.83794736156379   -1.00173434800975
H          -1.26511823271045    1.01551499826991   -0.64535095283659
H          -0.40418856866405    1.51679476490619   -1.81208143134537
O           0.43628735911832    0.14232049473372   -2.59871785043183
H          -0.09845419713061   -0.56395457444525   -2.96506381330297
H           0.85758196339221   -0.22487178012513   -1.79872763936235
O          -0.39849354355273    0.57713515148829    2.55831401160172
H          -0.16494188450720   -0.36575118611056    2.39942242904280
H          -1.33872877687280    0.63973542814391    2.36810011866618
O           0.94601526934107    1.67593555911617    0.68929725366077
H           1.26702869014665    0.76590833146840    0.33822686024185
H           0.17648320159143    1.92439433489869   -0.04801450767228
H           0.44491321296724    1.40793522868216    1.54161170857442
