    19
        -40.92136371
S           0.14614287864332    1.00670192054894   -0.94274333823288
O          -0.41876119544101    1.28002308067301    0.39070654160771
O           1.40906087290885    1.67134804292772   -1.14798088491024
O           0.17034708921548   -0.41367638017236   -1.20988848553679
O          -0.88827351714733    1.64282968509179   -1.96564246382631
H          -0.58020407098097    2.53690855948475   -2.08418409493884
O           2.63311415690665   -0.21286465134469    0.22798314801496
H           2.60087400200982   -0.93823490472996   -0.40197106138120
H           2.34481827091111    0.58114760913688   -0.27707068120963
O          -2.60602519022852   -0.27381432288165    0.29772891983476
H          -1.92483758595755    0.42060011263086    0.37485495799895
H          -2.94315688740792   -0.21605015369420   -0.59788120313957
O          -0.66334844087706   -2.06350715462535    0.64742934334349
H          -1.56334314923658   -1.67347687871222    0.70874728606822
H          -0.33197180205689   -1.70073142872002   -0.20575463237890
O           0.69828288624778   -0.40099141744505    1.88085703600041
H           1.58674587136923   -0.40236261817618    1.37154358692972
H           0.21101454739512    0.39542805216260    1.45288565493138
H           0.11952125377439   -1.23927716195977    1.48038037096503
