    19
        -40.91966064
S          -1.58535404747205    0.38563040992022   -0.52024955630114
O          -1.85084746674552    0.17805897420018    0.91171854890326
O          -0.91631433229331    1.65842935530484   -0.74028355949260
O          -0.88578194446028   -0.73336239410307   -1.10110704621416
O          -2.99586392252105    0.47768079232567   -1.21288662541246
H          -3.39049340469693    1.23548151947454   -0.79233764084854
O           1.32752104309579    1.52914591285037    0.48766500482730
H           0.48400842475924    1.65501876244379   -0.03682567924185
H           1.54399521103593    2.38600127514203    0.86013840219866
O           0.82929072313032   -2.30186621405269    0.31613410722436
H           1.48200157843167   -1.86484488981479   -0.28380138170909
H           0.00186364814601   -2.24120230278752   -0.18891987656761
O           1.85173169006934   -0.55638171985652   -1.38040760872599
H           2.03360173930237    0.26503151604661   -0.90947693174883
H           0.91294512412749   -0.51569589743601   -1.62634095700001
O           0.34360266725863   -0.41317118020498    1.87214493518372
H           0.87131617953463    0.34357876649899    1.46046768420050
H          -0.65437079438846   -0.19449959825275    1.57571447066656
H           0.59714790368411   -1.29303307770527    1.30865370005455
