    19
        -40.92136402
S           0.05261187889314   -1.34198188673760    0.34528957429898
O           1.19568582453878   -0.44264804886151    0.58180996157539
O          -0.52310631268780   -1.83002786575660    1.57381866380655
O          -0.89923300464350   -0.73670952984886   -0.55879726616635
O           0.66525734045114   -2.59535617992230   -0.41272493107253
H           0.89555797861688   -3.20128587515258    0.28585434880553
O          -1.82072833121509    0.44352125973783    1.87595557162583
H          -1.39535018406965   -0.44155112749574    1.94118143745508
H          -2.49957668145665    0.34836549686016    1.20205783204394
O           1.76422828665280    0.26936293172095   -1.94339699562971
H           1.63381346445651   -0.51103733284555   -2.48463709554165
H           1.72900873391858   -0.03552971426347   -1.01712600231784
O          -0.43734153097181    1.68555320351564   -1.44408957640121
H          -0.83956540390869    0.79773753668502   -1.30455601035325
H           0.43017845106325    1.46465170767151   -1.84928799680523
O           0.13833812649096    1.80031203687085    0.96304059382175
H           0.73606300960987    0.96651069283886    0.91464276567177
H          -0.12650270254566    1.92831300886608   -0.09136481276443
H          -0.69933894327230    1.43179965613092    1.42232993794323
