    19
        -40.92079103
S          -0.18698511037394    0.80360723083866    1.23541914120270
O           0.73025625847648    1.91377742246209    1.22001096709689
O          -1.26372935723606    0.95075016900485    0.25417327582597
O           0.45072204382109   -0.50083002984796    1.12209101031378
O          -0.89023392679356    0.79485740370573    2.65328862093393
H          -1.19481946955284    1.69134911759171    2.75339504629164
O           1.53655551202473    1.93422506676404   -1.29668867865665
H           2.36329419911456    2.41872403795779   -1.33725336542651
H           1.21043738276762    2.02706253902984   -0.37531052997511
O           1.22096326532646   -0.67953166830648   -1.42341790215198
H           1.42722377954143    0.26892833033202   -1.59711624027691
H           1.20962364302593   -0.74093109593276   -0.44668154694454
O          -1.15102587040673   -2.48606326681464    0.51140209870868
H          -0.63223878754763   -3.29256419235752    0.48452349925091
H          -0.58306254800588   -1.80068043012674    0.93644013946663
O          -1.26559907284502   -0.84489327003322   -1.44966344980002
H          -0.21403285645028   -0.81256365600288   -1.62682512405770
H          -1.38423458468327   -1.62593638709475   -0.81261959088696
H          -1.38311449013858   -0.01928733093840   -0.80516737130052
