    19
        -40.90976896
S           1.10497579267540    1.56656929115497    0.39398440338128
O           0.77481131515308    1.65143718928677   -1.01679153704362
O          -0.06428035769910    1.68571056261300    1.24571335003536
O           1.89075416352757    0.37064475527056    0.70290825015377
O           2.05045440238189    2.78419529514613    0.72722885278197
H           1.50792603750582    3.54147735670236    0.52871101796060
O           0.05287666535415   -0.59994626304425   -2.03803649686609
H           0.28155807901675    0.31707206816500   -1.72026778654224
H           0.60649101658513   -0.76761645031697   -2.80284474835734
O          -2.25746309508008   -1.80071887060057   -0.82272411484392
H          -1.81558289803321   -1.26747042201172   -1.49030978684502
H          -2.35801628590966   -1.24483769660702   -0.04414145940321
O          -1.30461546276785   -0.54631125760864    1.58036176861368
H          -0.91282037680480    0.36443181241822    1.47431744079856
H          -1.39592211858780   -0.69338303343989    2.52354596604717
O           0.56312338566272   -1.64801365428274    0.23294225775299
H           0.30509114493148   -1.44134421580067   -0.73549009458307
H           1.23691832665943   -0.85300912063073    0.47446268681350
H          -0.26627974498914   -1.41888734646956    0.78643000970273
