    19
        -40.92174076
S          -0.37983129432929   -0.80996873795145    0.05737680943249
O           0.54898271277340   -0.35569708042110    1.16816538094392
O          -1.63085625475504   -0.08469329691750    0.12547362062404
O           0.28103715356461   -0.74058062215846   -1.21286793678548
O          -0.64977417462012   -2.29156740104042    0.39867407783686
H          -1.32647539818327   -2.28224532890327    1.12400867635713
O           2.71131161927909    0.37463044899101   -1.51852720260989
H           1.85663140132922   -0.09430061248526   -1.56712152481185
H           3.38390922814063   -0.29799587414867   -1.39990891783981
O          -0.53946445685226    2.09217979053633   -1.05607057620271
H          -1.12673547352030    1.43952006892737   -0.64030908286000
H          -0.29096335393053    1.71763870456489   -1.90528653330236
O          -2.60128135162859   -1.68399183257272    1.99953102251984
H          -2.49403383894983   -0.86290600145835    1.48460157625754
H          -3.47032029322265   -2.03470593558710    1.78862427134522
O           1.61134387340492    1.76123153971462    0.46595104404124
H           0.85290644811729    2.14671270787848   -0.03316202742639
H           1.04124870461756    0.58899596316668    0.94710688329570
H           2.22236474876515    1.41774348986383   -0.22625958081304
