    19
        -40.91885163
S          -0.45701129449076    1.13036854059426   -0.14279144612405
O          -1.41176120040207    0.31287973113010   -0.86123943035103
O           0.08776860710133    0.35127980508908    1.01215592522127
O           0.61910471375764    1.63366408261207   -0.95998473220107
O          -1.19500802021866    2.34934271752768    0.47985472098956
H          -1.78885067164295    1.94328825131702    1.14310752012529
O          -0.66745071994494   -2.09719702104789   -1.37825424542429
H          -1.01844081145892   -1.16567538405709   -1.31004928222625
H          -1.35646989748562   -2.66560809352178   -1.02759903629302
O           2.57858146375844    0.02872984979711   -1.50256027417893
H           3.37544477122752    0.46783709752510   -1.19772090517254
H           1.85121047237841    0.70268889217925   -1.43766641855262
O          -2.11782801028383    0.78160025441089    2.40052809007822
H          -1.29007228960879    0.38942099133359    2.06269041174561
H          -1.93476867500989    1.08916669419244    3.29134882568432
O           1.33989956816152   -1.54279683307252    0.03684090499528
H           0.58127016295307   -1.92460683744819   -0.56211641412996
H           1.96247312567582   -1.02391987204557   -0.60683700290060
H           0.84190870553877   -0.76046285651255    0.56029277871459
