    19
        -40.91892664
S           0.67067692907727   -0.70764100449464   -1.05227663045810
O           0.22972219843867   -2.08330288926375   -0.96709992383441
O          -0.45328188517892    0.19722606927791   -1.35848000582039
O           1.41241178791847   -0.24036674179965    0.09254109683013
O           1.64047829463794   -0.60776173760764   -2.29728369638356
H           1.23221050936493   -1.15537697412028   -2.96149513592699
O           1.08878288702298    2.38402225238902   -0.45820462353350
H           0.39616263712807    2.29134372409546   -1.11889097600638
H           1.49682723893097    1.50365219309589   -0.40401448513701
O          -1.27175841669480   -2.08289267521654    1.15309672006452
H          -1.95949623149693   -2.74006153836407    1.02589202033354
H          -0.64021579397813   -2.18953949610164    0.39628987335665
O           0.27005517377019    1.47167622137040    1.91598886018015
H           0.53493665975597    2.12618815986365    1.23061278205284
H           0.88910132601131    0.73833725106276    1.77181887254611
O          -1.68491954600000    0.39724398365023    0.78522485624761
H          -1.64135656912701   -0.58744753028904    1.06116266863134
H          -0.94579078195369    0.90241399611205    1.36427633344313
H          -1.26454641763094    0.38228674636298   -0.17915859658244
