    19
        -40.91899959
S           0.29871896936413    0.86290926063551   -0.80396551907755
O          -1.14346972292134    0.78151767565502   -0.90260580020503
O           0.71597857973198    0.65433349075640    0.61496570533464
O           0.98466057855716   -0.06819911318198   -1.67035288992813
O           0.76468873421580    2.29464445457935   -1.18276589138368
H           0.42372801527193    2.84853207039249   -0.44969393156652
O          -2.27560676982701   -1.17557276949033    0.33240063428750
H          -1.96999425612750   -0.34576979064018   -0.12898720484484
H          -2.58709658024034   -1.76208470717953   -0.36071168695197
O           0.06795503792131    3.15218966524486    1.20863229692532
H           0.74980619995432    3.59778738180892    1.71680534995946
H           0.23089307203710    2.19461029416095    1.29677212704566
O           0.98124647621811   -2.54509351328894   -0.95619635258105
H           0.97615214934800   -1.63541864975514   -1.36352869130433
H           1.88754853095135   -2.85440473635276   -1.01508650850020
O           0.03588265960062   -1.64387076316610    1.20994816794840
H           0.38174142116694   -0.64454348169416    1.06395627669268
H          -0.97513417210113   -1.55883865419580    0.97477277255878
H           0.45230105685992   -2.15272812432753    0.41564114558566
