    19
        -40.91966063
S           0.98725141354229    1.39822646076279    0.05567411585484
O           0.19876586954051    1.61773925683271    1.27797400385580
O           1.98599206632405    0.36174118113582    0.26620947142096
O           0.14316694067083    1.15174940824993   -1.08709929121462
O           1.76273622194122    2.74284082205299   -0.20626567372997
H           2.30077506426817    2.83463590813349    0.57405166317086
O           0.70292357755187   -1.79057866553633    0.79547797526337
H           1.28000432304469   -1.00285557235040    0.57406424078988
H           1.18658969033704   -2.30538949333689    1.44421636014977
O          -2.29793129901110   -0.03157902839393   -0.89324319911549
H          -1.78276005506762    0.75783360595505   -1.12835936458383
H          -1.82144825081743   -0.75182289958930   -1.37334694502368
O          -0.29589741215687   -1.46269586073671   -1.85245390090109
H           0.10241040689925   -0.57693991351396   -1.84763621074172
H           0.12159030594861   -1.93971918926211   -1.12605620526859
O          -1.32938321513661   -0.31635364920752    1.38825578639817
H          -0.74370366382546    0.56998596474532    1.43999450791594
H          -1.86530881781257   -0.22131915823194    0.46131748379439
H          -0.63577317621169   -1.03549915773753    1.23722518200009
