    19
        -40.91955557
S           0.35819945340634    0.56870463114286   -1.45253893851380
O          -0.67014610503230   -0.46986293047724   -1.44832320497700
O          -0.06415706675727    1.70274056592902   -0.62798355004683
O           1.66055591803884    0.06775186710569   -1.09914846124430
O           0.45422881631901    1.11690619238215   -2.93317135890313
H          -0.35969870346004    1.59367142799296   -3.06706824549732
O           1.67079604216079    0.92365419760355    1.33541726062195
H           1.18766892502430    1.72108398331461    1.07950708403169
H           1.90577002693087    0.52243302696469    0.46014115391165
O          -1.90869142070782    0.55457898013495    0.75373716321744
H          -2.15246863987170   -0.06990921642303    0.05898764771894
H          -1.28915288079031    1.17095757067017    0.28128530056148
O           0.10977726832086   -2.33685512150355    0.17589336782043
H          -0.43535488014982   -3.11053093017776    0.02179261184772
H          -0.09368591508008   -1.69011996287852   -0.54801628399294
O          -0.12944083002313   -0.65830172309853    2.05942440536634
H           0.69052782969028   -0.00791257102350    1.87752788245107
H          -0.95051148485678   -0.15107193457055    1.65028123958966
H           0.01578364683954   -1.44791803309173    1.42225491603818
