    19
        -40.92135407
S           1.27682854681913   -0.00422548456597   -0.89799829222744
O           0.56682021729065    1.19815367124994   -0.49107919699863
O           1.86401323242648   -0.72284712694063    0.21153947794252
O           0.43646834192398   -0.86813095179383   -1.72809570797538
O           2.46143248258590    0.48190614094905   -1.82025978812789
H           2.95268191246332   -0.31914018589948   -1.97406901946113
O          -2.06707539595149    1.12198690227911   -0.73052541127159
H          -1.10550760849018    1.31238009116342   -0.64335379102635
H          -2.32226784250442    1.40108715142215   -1.61176228894466
O          -0.21893224589645   -1.34702676224665    1.67233310004164
H          -0.30019662034738   -0.44506914233751    2.06529260491819
H           0.65898819045276   -1.31500365311557    1.22361385558278
O           0.09155287166326    1.23188469301699    2.15669833843754
H           0.28931841753601    1.36543473646154    1.20914882932663
H           0.90307460311355    1.42442051885999    2.62946977460148
O          -1.59897926927148   -1.36288534526872   -0.38146187359117
H          -1.99599971445541   -0.42821292551660   -0.44845825711087
H          -0.79127104366271   -1.30003285017900   -1.03146053201428
H          -1.10094909471944   -1.42467947832055    0.59042816824478
