    19
        -40.91892665
S           0.75022119441651    0.44783450442161   -1.13716000529701
O          -0.15518057827262    1.34610778196273   -0.46450510779655
O           2.12927242703060    0.54728041430722   -0.70999356524069
O           0.26524581498134   -0.94324836995227   -1.06457393285681
O           0.71190812321492    0.82543141555375   -2.67245600373773
H           1.49112929645032    0.41698228307488   -3.03821108219267
O           1.98821888954141   -0.01414332020163    1.82266878597855
H           2.80924232994896   -0.44297505173882    2.07391459026720
H           2.11357149373779    0.30516098114551    0.89242530655060
O          -1.91825961649403    0.42265214439996    1.43540617815279
H          -2.42562231121948    0.19778090899616    0.62257907304340
H          -1.35554191244799    1.15899512888099    1.14812662024275
O          -2.39237006624934    0.00406059951709   -1.15981932165432
H          -1.68549594822780    0.67100350965015   -1.16750443298082
H          -1.96761758354726   -0.80476249393800   -1.46027798937132
O          -0.13497420397531   -1.32886848037710    1.35308050843126
H          -0.93899412012952   -0.64586202051403    1.50819712276331
H           0.00849839904775   -1.29755698363228    0.31163047929222
H           0.70674838216183   -0.86587295158705    1.70647277644067
