    19
        -40.92135374
S           0.75253805450266    1.18630166021135    0.67811725630453
O           1.68337658207967    0.95402300927550   -0.42721592833350
O          -0.40251032135295    1.95126456547424    0.26276538459271
O           0.40639403175500   -0.05455862252585    1.35309782664522
O           1.53306641948967    2.05474217689128    1.73959816491820
H           1.65472096474158    2.88376057811164    1.28725411919777
O          -2.17719357538802   -0.70352897258354    0.97420828083614
H          -2.73481726137238   -0.12460050066396    1.49669154907736
H          -1.25828674247793   -0.51928216375439    1.25048144923889
O          -1.61408972258051    0.32352301064166   -1.39506162974547
H          -2.01217693793783   -0.22181653833062   -0.67504290740067
H          -1.26503723036634    1.10854652338133   -0.91063007629468
O           0.92834580669138   -2.28119544396486    0.02369772179125
H           1.82536993349576   -2.56700001772726    0.20613947649436
H           0.73470896239676   -1.54755431959252    0.65057191799690
O           0.57869369716414   -0.68748356782228   -1.93855203538198
H          -0.43955826098902   -0.31046078398194   -1.81793741857171
H           1.13462283237038    0.03939399414868   -1.44640993379881
H           0.67183276778949   -1.48407458718679   -1.31177320759287
