    19
        -40.91892629
S           1.42431148894615    0.16400795597139   -0.02152070476098
O           1.77038910360825    0.59558826182648   -1.35870781314866
O           0.59761265929209    1.08805707177545    0.71476034593067
O           0.82859550020737   -1.18509683318067   -0.03062586763675
O           2.77780309348937    0.02010708214370    0.78350848628220
H           3.38946089212198   -0.35390847475934    0.15618258326563
O          -0.21174656432250   -0.71772726036336    2.55269577336758
H           0.08230958418677   -1.51025561142000    2.09420963652738
H           0.28635539428937    0.00630433111465    2.13767825709836
O          -2.07072008011495    0.57687736909888    1.13601308287495
H          -1.38973423273658    1.25203205020255    0.98680152521045
H          -1.68997178583896    0.03128820524850    1.86108135358661
O          -0.55063857876603    0.85978892834314   -2.49594975893667
H           0.36209367147221    0.87911213507507   -2.10925514489740
H          -0.44462663001179    0.66013977316621   -3.42867657215434
O          -1.48727465292659   -0.83122861639608   -0.84651099542107
H          -1.87270044869381   -0.25839525584562   -0.03361512784325
H          -1.26902386910643   -0.16232199486912   -1.58983463839399
H          -0.53249454508418   -1.11436910711433   -0.50823442093253
