    19
        -40.92136392
S          -0.15843367006967   -0.79513433882149    1.12388893755688
O           0.76444489574776   -1.85777692480645    1.43668147451177
O           0.43795273936789    0.52138759277606    1.09409296596792
O          -0.91384348314302   -1.05683613414248   -0.11396155868267
O          -1.25151464531255   -0.77210030663030    2.27558234195456
H          -1.28678622480931   -1.67393030949334    2.58188797715202
O          -2.31633138058679    1.22547653066504   -0.28757603489409
H          -2.55608943737888    1.46622268358772    0.60891036052723
H          -1.96592398566598    0.31612081644743   -0.23808790676954
O           2.47306721621893   -0.89645576864648   -0.32518372994075
H           2.78816269889817   -0.11875424386591    0.14381082351832
H           1.95377533399269   -1.40534949259786    0.33794027553539
O           0.11760830273898    2.00540068133422   -1.04113612355956
H          -0.86434264952584    1.99936569040229   -1.00078886457421
H           0.36922261264387    1.69989303697329   -0.13962386623758
O           0.60536055564204   -0.25116693180703   -1.94040280280701
H           1.47196897226767   -0.51216706700887   -1.46177756778043
H          -0.10457878499139   -0.69895960060836   -1.34851100245075
H           0.43628093397242    0.80476407624357   -1.70574570902204
