    19
        -40.91941543
S          -1.39173172119457    0.64531710844638   -0.51819973481107
O          -0.73044263809376    0.06427106080362   -1.67263336424414
O          -1.88570561865737   -0.40129637237323    0.38461570198845
O          -0.57637266738767    1.62030924751069    0.17078226316421
O          -2.66760640170610    1.40534730524105   -1.04205464932230
H          -3.14057172517528    0.72827683327874   -1.51584662268131
O           1.90662123524322    0.73903494585813   -1.07720496791499
H           1.95965532804543    1.36609574641910   -0.35302918321004
H           1.00099893349386    0.80100676574104   -1.41737478609229
O           1.06030100229889   -1.79831572129286   -1.00663809677498
H           1.76353812049991   -1.12024184164670   -1.03213662304024
H           0.31683777303420   -1.34915605420943   -1.46183988680838
O           0.95164514731752    0.65362523604156    2.03071023833231
H           0.67413446040067    0.99178947805176    2.88408841816149
H           0.39798526715782    1.11953466670788    1.35154423816013
O           0.07741633281765   -1.62036750800615    1.27613511727749
H           0.55113285400638   -0.81656315823021    1.69000354955198
H          -0.83817666824752   -1.20791464886329    0.96194322271080
H           0.57034100615025   -1.82075308948331    0.34713517554920
