    19
        -40.91793150
S           0.57341460441024   -1.15091258298827    1.19802560774833
O           1.09933192070187    0.18222276777463    0.98850340485768
O          -0.29919303488802   -1.25832043482452    2.34447786958474
O          -0.06144673518889   -1.66875843159756   -0.02487551091410
O           1.82008437943978   -2.08735498398310    1.46057286503071
H           1.44141617756748   -2.91263854904319    1.75131035938965
O          -0.59371123140114    1.29314785242063   -2.35265993626464
H           0.34523272180408    1.17887905510772   -2.03927467654223
H          -0.63539047244629    0.88766158874784   -3.22109462048721
O           1.81379160679925    0.85366293392765   -1.43248033772703
H           2.42853352717230    1.57868634366015   -1.30498555927761
H           1.60418486700969    0.51778013360824   -0.52854157879294
O          -1.46539636193193    0.98158035616848    1.64484631374837
H          -0.62279962705696    1.43972678617004    1.54229770223760
H          -1.22089277898526    0.15425178260379    2.11802547340653
O          -1.84539161982130   -0.08623289206407   -0.62750969421921
H          -1.40717640432086    0.51539001367190   -1.34687254765805
H          -1.12570928419269   -0.85625270623258   -0.43015988105879
H          -1.84888226470517    0.43748096686266    0.26039474690641
