    19
        -40.91814213
S          -0.53011209887479    1.42871980944635    0.88772318256993
O          -0.24535464054034    2.64603451805495    0.18480284795869
O          -1.57591896462579    0.62305828826258    0.24327479392927
O           0.63270790193058    0.60202546553151    1.19350981470971
O          -1.12683863482033    1.84325730581720    2.30227778995821
H          -1.52924342137366    2.68852868756939    2.12724268631077
O           0.49701213545381   -1.04059299663985   -2.43241461642000
H           0.83743948766448   -0.16102838645125   -2.11587808537414
H           1.26683857240227   -1.60241422425187   -2.54240837363787
O           1.43131900400783    1.12855162037644   -1.29768055717856
H           1.48695916329847    0.85695491464904   -0.36671134300969
H           0.89302507040987    1.93106898846956   -1.25125783131662
O           0.52860231243101   -1.98011999501991    1.38215658113214
H           0.68071835997880   -0.99936624721600    1.39759482903032
H           0.18664639977786   -2.21234679946979    2.24741427622990
O          -1.08892549836759   -1.65247490483494   -0.55122363573825
H          -1.38656803652363   -0.67272417712861   -0.22957110342558
H          -0.49609583122580   -1.47380449473386   -1.37888782917057
H          -0.46221128092930   -1.95332737243976    0.20003655357833
