    19
        -40.91888520
S           0.35389041610305   -0.04969970009258    1.06865980802426
O          -0.26127169135980    1.02683328666071    0.23608911185988
O          -0.63337830085544   -1.05480425039505    1.39202447238233
O           1.51635312262015   -0.58859643744688    0.39672845225793
O           0.84025981056150    0.64539651603671    2.37049122818633
H           0.05124544008145    1.13861367676741    2.67917688621110
O          -1.36122024951868    2.09058097256350    2.40818364777617
H          -1.23737986839796    1.81533450134442    1.48162893501195
H          -1.25696159896292    3.04476252631216    2.43110767338649
O          -1.14775331665662   -2.16695294783996   -0.87748429578953
H          -1.06940924687235   -1.82812855045246    0.05626118636385
H          -0.44797635670105   -2.81677549188515   -0.97911075007662
O           1.89057958791908   -0.45456721748011   -2.16117482507255
H           2.52016516963050    0.24710257754398   -2.33730778401728
H           1.88820848043590   -0.58375689505796   -1.17650467686679
O          -0.59184900944260    0.02154821790409   -1.99381218578913
H          -0.92829191956284   -0.91017579960589   -1.67156857035369
H          -0.51687863880267    0.55622274395331   -1.07181621080063
H           0.39166816978434   -0.13293771882715   -2.25157210269588
