    19
        -40.91899940
S          -0.62543321851413    0.62131488795091   -0.83701504997334
O          -0.92159078863231   -0.76161900179548   -1.14649546991912
O          -0.52329597683854    0.79230310818668    0.64348749248023
O           0.57289454314418    1.10778136526500   -1.48156341138498
O          -1.80694975639275    1.51968732299990   -1.29226594427159
H          -2.53341796134107    1.26954264675561   -0.68377740994293
O           2.82762689346688    0.32527711490677   -0.50642315750646
H           2.01979315596852    0.62407531599752   -1.00788035670656
H           3.36915101543198    1.10856220956503   -0.38952039914286
O          -3.16249683220827    0.82528364886919    0.85686622518873
H          -3.47672678584518    1.54281151652838    1.41197698265269
H          -2.22045455414604    0.69348703464903    1.07232940375497
O           0.46771789778399   -2.54081139818005    0.09583708586368
H           1.04645929218143   -2.91718261228751   -0.57118340083441
H          -0.17625054727005   -1.96043753486703   -0.39722487493452
O           1.39540329419956   -0.57988673119771    1.37218080011940
H           1.08184244643401   -1.48899392378238    0.97318343578268
H           2.10914049428229   -0.23220564465095    0.71450588465482
H           0.55658739834717    0.05101067514634    1.17298216410832
