    19
        -40.91889838
S           1.06297714412251    0.21858791700163    1.03216853831796
O           2.30744519027859    0.48127365223176    0.33948291148447
O           0.01135882375788    1.16488896676063    0.60079456559523
O           0.59691059160331   -1.13935810029829    0.94388201416347
O           1.32351226376925    0.54459640676611    2.55636568066761
H           1.96626667671884    1.24662211609746    2.52147766436307
O          -1.59587600426868   -1.62245177220726   -0.39209514691140
H          -0.77370975855118   -1.72715505905675    0.14536296491222
H          -2.19403836782118   -1.12416733242321    0.20517207403613
O          -2.45348364997408    0.30475982446952    1.23706694009019
H          -1.55023556315120    0.67175812917899    1.16461105182725
H          -3.05603762800900    1.04855110785622    1.19254889970613
O           1.79881872755550   -0.38077924155455   -2.06035807011959
H           2.09928101886792   -0.14116891306088   -1.14749119284203
H           2.35981991256359    0.10731431189110   -2.66696989985460
O          -0.63323757712495    0.25872538838084   -1.65955956588793
H          -0.41696932349173    0.77900241874825   -0.80230134024973
H           0.28454474258312   -0.04744145133596   -1.98329595031199
H          -1.13734721942523   -0.64355838944699   -1.22686212898787
