    19
        -40.91793084
S          -0.40897137583793    1.37213195704238   -1.01843955846877
O          -0.93607708998393    2.49309150081863   -0.27454572892948
O           1.00913604460345    1.12671448166390   -0.71007320582500
O          -1.19016011439013    0.16055594699549   -0.87868965406760
O          -0.45211696798611    1.75882350268381   -2.55104753610436
H          -0.08715998847204    2.63891710653872   -2.58545856246938
O           1.19621450821627   -2.22558266509355    1.08517108253425
H           2.09692002186626   -2.51583752162161    0.92780485338002
H           0.73770577150335   -2.25517476120405    0.20102299456076
O          -1.34607531632586    0.91884642155305    1.77900901811163
H          -1.80362998161387    0.25907222242134    1.24479216465937
H          -1.29663175804637    1.70230641541484    1.18546601481065
O           0.01859561110851   -2.12542966527276   -1.24698950299681
H          -0.68930947733831   -2.73485969718274   -1.46437953511924
H          -0.40080487937462   -1.23342199076619   -1.19906058416519
O           1.09897522819430    0.26054523599758    1.59051992396393
H           1.17394393965802    0.66764805971098    0.60170260847006
H           0.12907286216798    0.49738221221889    1.84757623152333
H           1.15037295206658   -0.76572877192533    1.46561896613342
