    19
        -40.91677646
S          -0.09805084782496    0.56083985443325    1.38642968337756
O           0.47684780533032    1.32585411526942    0.26369553448823
O          -1.30571705067379   -0.11970735077972    0.94598936590780
O           0.87098885501583   -0.29812510661051    2.01040915169899
O          -0.53449979620777    1.63054061256020    2.45681009150583
H          -1.26676885844274    2.09256526229123    2.05911453076768
O          -1.18795558884237   -1.21058444351119   -1.50958288879340
H          -1.68376207043502   -0.45565137034207   -1.87234852396623
H          -1.34335011283067   -1.14542340792736   -0.54553675849735
O          -1.95898036562026    1.40929288921820   -1.18552135381066
H          -1.89908788707457    0.93588347537564   -0.33729497115188
H          -1.16786515463571    1.95359905586186   -1.22665628178609
O           2.21398935884668   -1.81724439213390    0.38803854124340
H           1.71225709198166   -1.35690184833865    1.10793750338245
H           3.14317118944111   -1.73689843402334    0.61340884097553
O           1.17243106398363   -0.36961762141175   -1.40718907904593
H           0.94938125434033    0.43349478090757   -0.76205480023759
H           1.68307215187229   -1.03017943175641   -0.80487385737388
H           0.22389897182451   -0.80173665902471   -1.58077471869007
