    19
        -40.91941536
S          -1.35563820568367    0.53569990614330    0.70627732779077
O          -0.30027530485522    1.47901265799634    1.02794126766246
O          -1.72294272946631    0.62421712071582   -0.71233897174790
O          -1.04622919920777   -0.81834776114047    1.10721985026976
O          -2.63706790663783    0.96916510615640    1.51229481010279
H          -2.78745766765757    1.86012444040112    1.21212383039848
O           1.74427267821549    1.36719819858822   -0.68185477897383
H           2.20526520060795    0.75262499231773   -0.07787248444523
H           1.03176582585802    1.72807960271471   -0.11276046104201
O           0.21639339870476   -2.22587489117732   -0.66849294734417
H          -0.33820214855613   -2.95248319461765   -0.95841702659003
H          -0.27362537538978   -1.77630852938000    0.06809275214539
O           1.80900640591294   -0.30103651889963    1.40891587054050
H           1.50567285951748   -1.21030946449074    1.45013634861013
H           1.03122238680943    0.24797898826527    1.59167520756025
O           0.24238226781807   -0.07904686835971   -2.04586157910158
H           0.97683157381773    0.54723987332097   -1.58219618029664
H           0.35120574795366   -1.00752953777411   -1.63670139428800
H          -0.65257978776991    0.25959588921923   -1.60818146125365
