    19
        -40.92136407
S           0.18563551336064    1.22620703838295    0.61926667981855
O          -0.41404626265424    1.52844867042103    1.89514393764926
O           1.11025763890862    0.11527237817902    0.64450452029238
O          -0.81971181416210    1.04727936112428   -0.44314298535130
O           1.02225908714270    2.50339090853125    0.18298130190267
H           0.56923726396409    3.23211631144614    0.59781814875227
O           0.78225620968552    0.37712855459323   -2.49042239046338
H           1.57525231903986    0.90857064273672   -2.40151154796838
H           0.13800949090474    0.74591555508820   -1.85707213862171
O           0.75989937103727   -1.85917022955118   -1.04153180525652
H           1.13924030813638   -1.27575325747283   -0.34500235379420
H           0.81670325758330   -1.29559072344666   -1.84460609066943
O          -0.96349113174493   -1.02499609241843    2.24718822935237
H          -0.08561774890728   -1.36821105861513    2.43586228552486
H          -0.86854537305502   -0.04575132550533    2.26987947396265
O          -1.52215882306818   -1.35093900946753   -0.22161737117144
H          -0.58260048981183   -1.73305932769066   -0.63413286111836
H          -1.41863258664581   -1.38468684733971    0.79639904615939
H          -1.42394623972772   -0.34617154898226   -0.41000409900119
