    19
        -40.91274172
S           0.09019019676289   -0.98145958590006    0.86269727289660
O           0.87023548559607    0.16652251702995    1.25498088375325
O          -1.30044056717243   -0.90609551748140    1.26775077358652
O           0.17469992816026   -1.24187034861610   -0.58814011135221
O           0.72160601482197   -2.23289917398375    1.57011249068133
H           0.20761696485372   -2.98321578492715    1.28539609306850
O           0.83850112570815    2.24080844019788   -0.33521347581797
H           0.42595360003187    2.95406571448662    0.15708768381333
H           1.00749501137373    1.51499219009256    0.31408915885078
O          -2.59932621585029    0.84342632232544   -0.11455464825287
H          -3.45734972498627    0.46781189953638   -0.32295022166202
H          -2.16649565060017    0.21010638842240    0.52164174841764
O           2.93148688318449   -1.11268164634945   -0.18041783188754
H           2.65464290261347   -0.59835133349138    0.58331109982308
H           2.11479183029405   -1.34819859047508   -0.63138390329803
O          -0.66546300784045    0.78244638249402   -1.73831384892405
H          -1.54586199335771    0.87771377503154   -1.20740439850099
H          -0.02473552798288    1.48189924811577   -1.31748767028331
H          -0.27754725561205   -0.13502087651944   -1.38120108491073
