    19
        -40.91892666
S           0.75682874463825   -0.62889385237520   -1.04310376315938
O           1.51334361412859   -1.69470405460217   -0.42196600111810
O          -0.67464040829100   -0.79183695332293   -0.98371051459560
O           1.16012071860673    0.69006750911686   -0.52035085732404
O           1.15148189795561   -0.61164073429817   -2.57442475218763
H           2.08996179451047   -0.77572707609924   -2.58115497792694
O          -2.20623510089095    0.72402426064146    0.72513623823243
H          -2.10923631539095    1.36713264023515   -0.01341381832061
H          -2.09459177994927   -0.13441688583007    0.28663626647265
O          -1.23770574967398    1.79347330208930   -1.52338695493562
H          -1.10101307780682    0.83991872217272   -1.65224478540240
H          -0.35535797184760    2.14959025956897   -1.38395895310308
O           0.68001947435201   -1.63000074426116    2.03798865393517
H           0.97538877407333   -1.78467047213848    1.10427076792754
H           1.40547706158642   -1.90976791038187    2.60062025914110
O           0.08907470814395    0.82007936984266    1.71339960873617
H          -0.93494840867020    0.83397396984067    1.41579820273211
H           0.28675103330986   -0.13789972441460    2.01492199468837
H           0.60528099125311    0.88129836423744    0.79894339618896
