    19
        -40.92315431
S           0.82799901573032    1.47807496747882   -0.11494406877187
O           0.03577543159098    1.62565421629352   -1.33868878491865
O          -0.04071679280901    1.11163900236922    1.00529266707008
O           1.94164658636602    0.57818211793675   -0.25023047245520
O           1.39621375442449    2.91461053528064    0.19035944821512
H           0.67591946267138    3.48132165059922   -0.06758368824468
O           0.92882234747587   -1.76322506905706   -0.86319987921012
H           0.67556897804500   -1.94581718615857    0.06705817811134
H           1.51815931459244   -0.97864843562815   -0.78665794015893
O          -2.20345710999565   -0.35061451680498    0.52654438873901
H          -1.99137201130547   -1.10247526460376    1.08994965330491
H          -1.56692915397022    0.35052363308574    0.78831353017869
O           0.25797044331900   -1.43250247008093    1.71008277825301
H           0.96456249695765   -1.58536536227277    2.33900487985318
H           0.23665381742274   -0.46187050148509    1.55587374054003
O          -1.07258664360162   -0.56377634680810   -1.73978218080328
H          -1.68665309857612   -0.55987630351287   -0.91424911275102
H          -0.65203230400997    0.39219355474617   -1.72119464335426
H          -0.24554455434061   -1.18802821139920   -1.47594849359344
