    19
        -40.92071360
S           1.02418266967828   -0.27111194111067   -1.03743815540688
O           0.19224153844531    0.94651007348299   -0.96108698888806
O           2.39901029149982    0.00133489371142   -0.68674058856222
O           0.42345234042674   -1.34411589488603   -0.27959502545958
O           1.01500454360063   -0.69869548766693   -2.55826360919699
H           1.73075276220816   -0.19925503430758   -2.94103449571059
O          -1.76529080548825   -0.83992130992410    1.08502677197942
H          -2.32273680556490   -0.47259144607749    0.36672920895706
H          -1.04365989662386   -1.30501442186462    0.60235255832266
O          -2.44423876861790    0.47972294226433   -1.12764150160551
H          -1.48770289804934    0.65349063228901   -1.23298974420009
H          -2.89691822356703    1.29582494803986   -1.34556562252318
O           1.91125987123830   -0.20595673573161    1.87643856226734
H           1.69345792547561   -1.14090854852990    1.93437957016444
H           2.28190901097029   -0.08530223900142    0.97021567650861
O          -0.25339060226571    1.07278908649871    1.51262979144912
H           0.61920393345917    0.62923849016825    1.83367483593475
H          -0.07735954081776    1.21665679131840    0.51163494153465
H          -0.99917735567606    0.26730520140864    1.47727382451221
