    19
        -40.92079099
S           0.58643697710480    0.15239226007932   -1.35732252950939
O           1.53283281955081   -0.32338285308625   -0.34637913900779
O           0.09659546095998   -0.90902452489530   -2.19854411415799
O          -0.45852010608442    0.96774441545758   -0.75378138731923
O           1.40098996149958    1.14565349424820   -2.28163560545161
H           1.99252673919699    0.56908513851168   -2.75508717527117
O          -0.93968916141574   -2.59277157386193   -0.44487801612543
H          -0.49746331043803   -2.04825830872062   -1.13185752290973
H          -1.55932950114614   -3.15785313645199   -0.91024642229355
O          -1.52883517979747   -0.57225675514618    1.14135806605981
H          -1.42473366421475   -1.45454286479388    0.71325838940893
H          -1.42794931009655    0.06015320748410    0.40141230198690
O           0.29935876724536    2.47215106904081    1.25706644158571
H          -0.46132527012248    2.97117381292943    1.56141199615193
H           0.04814015004389    2.07814290149899    0.38848227594119
O           0.73817427696304    0.05245906525912    1.96743174944428
H           0.65843419684717    1.06284715387564    1.91377928861680
H          -0.25405347098594   -0.29524338175994    1.78792865461043
H           1.19840963492113   -0.17846913965939    1.04760275821378
