    19
        -40.91893360
S           1.67850042226591    0.39880291012502    0.20530959342234
O           1.28072177666300   -0.99675271146545   -0.03619951020338
O           2.08549290612548    1.06353048156225   -1.00644299476089
O           0.67733304964150    1.09868201365186    0.98571800851228
O           2.96736461435579    0.31585553334414    1.12860313668511
H           3.67493540486680    0.20491333005390    0.50076085035517
O          -0.46429545793059    1.52071042717645   -1.51263808719768
H           0.50591286829130    1.39191879901919   -1.52256213980459
H          -0.63896520754788    1.92908830503646   -0.65953791351111
O          -1.85883122714241   -0.68283235018298   -1.80026067985151
H          -1.51731059554646   -1.10826592000423   -2.58930555108499
H          -1.40119767507052    0.19841890854514   -1.74159506268991
O          -1.38498186552812    0.02684788655030    2.12882475125677
H          -0.62372763769713    0.54383300020423    1.75776921236718
H          -1.15808307588062   -0.17062429459426    3.03937091615851
O          -1.03270518320238   -1.74163835162292    0.34264820524420
H          -1.31860394175822   -1.11439508968246    1.10143056434817
H          -1.47174854024571   -1.38138244184952   -0.52360117921825
H           0.00018938553335   -1.49671044598420    0.20170786000447
