    19
        -40.91892650
S          -0.91871800699965    0.68093774120508    0.86553581286647
O          -0.89761179971209   -0.02252927611833    2.12994264535349
O           0.33097410404811    1.30000682812932    0.49915227369166
O          -1.41790669119353   -0.18294905242106   -0.22070500014251
O          -1.98256016301829    1.84334786193534    0.99977538335322
H          -2.69819382474472    1.45634016976397    1.49543488759200
O           0.94370203465982   -1.81697882440943    1.75497353803189
H           0.71087185046564   -2.58887153461527    2.27561936111449
H           0.30340738019416   -1.10456833226045    2.01082787806002
O           1.92008738599521    0.23397289881954   -1.47636757053811
H           1.28114669664473    0.72854214263482   -2.03787594544121
H           1.89185755110975    0.71401050784299   -0.63356016762673
O          -0.29432309896578    1.58767191778344   -2.11234517448496
H          -1.06216031164760    1.00893980583821   -2.12725067135522
H          -0.16355190050554    1.79976270804190   -1.17296081897921
O           0.48892814089432   -1.68116992919439   -0.74164203212015
H           0.77804755435653   -1.87259177326632    0.22126918753642
H          -0.39186951991541   -1.12156193488368   -0.60700082591023
H           1.17787261837833   -0.96231193482296   -1.12282278101443
