    19
        -40.92079108
S          -0.69945644447851    1.07069038606817   -0.75708001986900
O           0.19258660439920    0.05227203322892   -1.29382456833128
O          -2.09829123928702    0.74123654124261   -0.85156219970683
O          -0.30337183447178    1.45586021736568    0.59888526586901
O          -0.45655095096012    2.34748287409989   -1.66037791253544
H          -1.14153190194475    2.94731252747621   -1.38174258273816
O          -2.34504865273740   -1.17902316278787    0.94748564063066
H          -3.14162238895897   -1.67269712318985    0.74339706374168
H          -2.33091122920238   -0.41600950935637    0.32978699784893
O           0.14191445010236   -1.92491213395888    0.49363376053227
H          -0.78954216433458   -1.83878490499266    0.80545412534569
H           0.15132485514326   -1.43353411045351   -0.35271912995045
O           2.71091037511062    0.27172044751053   -0.59415110539599
H           3.20059200768882   -0.43819575067553   -1.01437808644209
H           1.82420510814329    0.29521891682170   -1.02563563813467
O           1.39294108415484   -0.05981238350782    1.57462183253498
H           0.90712291735360   -0.95886338011224    1.26923822077028
H           2.11180901484614    0.08186124006861    0.87202993249688
H           0.67292038938819    0.65817728511551    1.29693839333607
