    19
        -40.92161531
S          -0.50462559657719   -0.89604215855595    0.27795245065047
O          -0.21212801970581   -1.48653716660823   -1.00772441761325
O           0.79947787229508   -0.38974961699853    0.89325729344500
O          -1.49706835688466    0.13565792406363    0.25771869870528
O          -0.93699794124617   -2.00161562587033    1.26347918484989
H          -0.23504788717524   -2.69468179168363    1.17422602136293
O          -0.12188417709735    0.94597350979422   -2.18191728898906
H          -0.09484669441832   -0.00824120204566   -1.99872058758208
H          -1.03653644556879    1.20457475211127   -2.04386549620971
O          -0.99541145339412    2.67180902790993    1.02744142122217
H          -1.73680460854852    3.25275592394610    0.84945894384682
H          -1.30541713697497    1.76157797171232    0.86679983150393
O           1.17406120500829   -3.28263291251291    0.45151198785744
H           1.91837735938760   -2.76056980602022    0.76437947468137
H           0.89502626859726   -2.88877470244968   -0.39064237939753
O           1.28031922748331    1.82765791887622   -0.09341123480217
H           0.91088013336776    1.65517782196036   -0.99142242461575
H           0.60999855071771    2.37242665087441    0.36995198471892
H           1.08862770066114    0.58123347141352    0.51152653627984
