    19
        -40.92071437
S          -0.99161318100545    0.56587532063281   -0.94404817113353
O          -1.82317300315060   -0.37152885988544   -1.66323730848757
O          -1.17801347030452    0.45038095496970    0.51609443551690
O           0.41063857700762    0.49100741859324   -1.28345366978818
O          -1.49846597775657    2.01298062451654   -1.32556476357284
H          -2.43049133679022    1.89425133846530   -1.48514386164248
O           2.14229182263162    0.03570681812000    0.63965901728395
H           1.90076946240508    0.76269205795102    1.25144455142935
H           1.73399779620755    0.30764367240983   -0.21458549808980
O          -0.09789192223080   -2.31632592966540   -1.35440913044468
H           0.63080066267391   -1.98310923403180   -1.88629942119045
H          -0.85835816086654   -1.72383642762688   -1.56324558811497
O           0.64005892845083    1.80246781489224    1.95220976497343
H           0.31077778072222    1.93219650597463    2.84272935366063
H          -0.10611630574614    1.45225019975920    1.42611244066828
O           0.27373782498543   -1.53860158482394    1.03561074707454
H           1.20114689518370   -0.95591157578296    0.95063419756158
H          -0.42883215313507   -0.79286716469495    0.97155158623618
H           0.16873578070584   -2.02527194977912    0.13394132807895
