    19
        -40.92079095
S           0.62097256015401   -1.00200810416669   -0.90323737150960
O           0.86600966928149   -0.82716285000998    0.52163727492305
O          -0.76016939077513   -0.65724362191025   -1.24598245944058
O           1.58131180834229   -0.34765674765111   -1.75394192827595
O           0.75601671942374   -2.55882385873312   -1.15493612867360
H           0.72914225734335   -2.63182048620800   -2.10385050024215
O          -1.14334604766126   -1.44441867144052    2.09023347681139
H          -0.86549412656825   -1.31558509269817    2.99936524541640
H          -0.32655534966922   -1.40701314167392    1.53851935883405
O          -1.95884463767532    0.47183953375445    0.60180414660552
H          -1.57806323958821    0.01316472974703   -0.26760655818733
H          -1.86856252663056   -0.27133313262479    1.28686786345111
O           0.96573193003601    2.20022025254552   -1.41168439321570
H           1.72124293994789    2.72553246196432   -1.68192928677327
H           1.18302698520093    1.27067831524670   -1.64056211792097
O           0.16867808163975    1.69096604101392    1.04923614527771
H          -1.16364952699490    1.14145971361595    0.83954057127006
H           0.65125590221696    0.83953275893840    1.04325995585645
H           0.42129600195009    2.10967190036079    0.19326672575293
