    19
        -40.92315431
S          -0.82775814881440    0.97813711948111    1.11365756883465
O          -0.96419687841389    1.09831302375398   -0.33915446830982
O          -1.37432515530867   -0.30397216472963    1.56609362845406
O           0.52108727719397    1.21970670788388    1.55019300297395
O          -1.75308127220050    2.07731338045552    1.75819194740740
H          -2.61451612226474    1.67375332286043    1.71658488434485
O           1.36586818024694    0.81573776557531   -1.58389820585833
H           0.52600390574422    1.05981171976034   -1.13511375932872
H           1.86979809929413    1.62693573507137   -1.66273540450639
O           1.98407388737079   -0.70669474140134    0.53264637808569
H           2.01224251844740   -0.27673149603606   -0.34907612571014
H           1.62443831531032   -0.00042317288067    1.11606046266714
O          -0.85008711125709   -1.09854113832654   -1.82373493720926
H          -1.11338893336392   -0.26528123718138   -1.37458644547543
H          -0.09536316639400   -0.85849263051590   -2.37177205922630
O          -0.09067999040553   -2.08149714291678    0.39397174845421
H          -0.41003479779004   -1.87382207227072   -0.56166740868360
H           0.87535748416507   -1.63124586381932    0.47477690552205
H          -0.68543810155790   -1.45300709476527    0.97956228756450
