    19
        -40.91940429
S           0.64426126923036   -0.33114643943896    0.78549053308698
O          -0.64154985611050   -0.92184225578567    1.09233874551954
O           1.01603106673210   -0.54340415212183   -0.61806763807096
O           0.67192880599972    1.09715016392121    1.11753186296192
O           1.73945123157071   -0.99556882887311    1.66745868751097
H           1.85277319051895   -1.88244635154409    1.26529055454310
O           1.87116618993189   -2.97493520300134   -0.06349222955037
H           2.71852541485471   -3.14739322883815   -0.48086219942105
H           1.47190601539271   -2.22068086466213   -0.53899229424362
O          -2.75010212564040    0.47714863652518    0.59721314483615
H          -2.01445669468748   -0.17631990226310    0.75863877157390
H          -3.20198768998463    0.57781370781621    1.43772551874070
O          -0.11604280568922    1.19838325623813   -2.18762240597182
H           0.60222022628265    1.66130238590553   -2.62408279727284
H           0.30381661051847    0.46006135295650   -1.67330631573188
O          -1.11725294146946    2.25791604557974   -0.11475597087249
H          -1.90947863399303    1.63629771296222    0.14022032598150
H          -0.32268437046994    1.87248101298510    0.49039460728726
H          -0.81852488297645    1.95518294164020   -1.05112090091039
