    19
        -40.92139827
S           0.80474768702014   -0.75545199385835    0.49942143449534
O          -0.51016739068616   -1.33393283221436    0.24079601003132
O           1.56887915234248   -0.57439327045117   -0.73233162256350
O           0.66989752043601    0.50255871040008    1.23173829950733
O           1.61646328830825   -1.74671121478737    1.38145194550278
H           1.05904694859257   -1.82924836188436    2.18219390950320
O          -1.70834105906854   -0.51237425971381   -1.91201668105981
H          -2.49569596243385   -0.06367701097153   -1.59574209044667
H          -1.30444247371330   -0.95806832317954   -1.12119786429817
O           0.02324295663076    2.44951820279129   -0.33811503472722
H           0.65532916817536    3.15531820927932   -0.18589343892340
H           0.22908111059693    1.74797866867650    0.34084362860455
O          -0.43975959223476   -1.30618845712143    2.96855022671751
H          -0.95206894795229   -1.54306552516401    2.18346035208679
H          -0.22136871715582   -0.37259819471885    2.84974871922098
O           0.35425848774318    0.89013595833513   -2.30203802860853
H           0.20295116728500    1.65430092769749   -1.62517184422736
H           0.98208652694426    0.23608558411419   -1.74445049465572
H          -0.53413990082873    0.35981317276846   -2.32124741615691
