    19
        -40.91885164
S          -0.72938973994430    0.49415685662252    0.85672022280361
O           0.19236105533118   -0.29837794727904    1.64313076044730
O          -0.02185259842050    1.01506078571312   -0.35387198625987
O          -1.92916790318318   -0.20737751069277    0.47289247756393
O          -1.14924038510443    1.74884386162396    1.67374708635581
H          -0.31785437332524    2.25869856034323    1.75349642424042
O           1.17132340959022    2.87700487780967    1.09070075628033
H           0.96530378725275    2.23032360686439    0.38897038654450
H           1.10336012836619    3.74815777722724    0.69306255161682
O           1.61344915867599   -2.00455690367754    0.34009868437581
H           1.05597093921933   -1.44505321750535    0.94987586555660
H           2.52608519807794   -1.81175516728463    0.56529968539620
O          -1.78123539170987   -1.83515699945342   -1.53706838392291
H          -1.94030242411419   -1.31257805409589   -0.70702494121044
H          -2.44578375559033   -1.54439506201210   -2.16515754840668
O           0.58209089514408   -0.96273683455057   -1.70670611994405
H           0.35968713081170   -0.04573149636468   -1.21276279423130
H           1.09189081429153   -1.49083412465110   -0.97086078824001
H          -0.34669594537231   -1.41369302862885   -1.77454233896588
