    19
        -40.92136382
S          -0.30568415556443   -0.84900032955430   -1.05309381354372
O          -0.76579897480844   -1.12880129641059    0.31849108410697
O          -1.39936737787544   -0.57630393395010   -1.95212965765170
O           0.72991500498476    0.15961895727524   -1.05227421374098
O           0.37517593443659   -2.19758832384407   -1.54182781045121
H          -0.33488949011586   -2.68119587142730   -1.95434984092962
O           1.44323109663808    1.23430570826971    1.22720746205087
H           1.40391505322300    0.99717768474596    0.27216083440058
H           1.69738360045256    0.38263127639567    1.64697320715847
O           1.59632136364229   -1.40384039375910    1.56253803008288
H           0.70071028153939   -1.46305322006872    1.17938434827672
H           2.17711127247883   -1.85955858117985    0.95093984096833
O          -1.54408693765967    1.89068816079505   -1.03655668773380
H          -1.65402800950859    1.01247442949956   -1.46684675272900
H          -0.75990578687210    2.27306247422514   -1.44017141627752
O          -1.02910350207354    1.14414092258878    1.34915759870146
H          -1.32366237783455    1.60539867833261    0.48398258430558
H          -1.05947909752511    0.15374669395707    1.08081670591915
H           0.05224209257359    1.30609695437529    1.42559853695208
