    19
        -40.91821040
S           0.68292614205072   -0.09433104803986    1.86202697915515
O           1.54848662537813   -0.89249450035876    0.97701807387438
O           0.57458673573801    1.27130037328028    1.37081152961837
O          -0.59209449313609   -0.71841551088912    2.10382680561019
O           1.45070356849258   -0.02424052605215    3.23827364888180
H           2.28810495788889    0.35399639371595    2.98796797021351
O           0.50828979723217    0.47406534159638   -2.56370342951925
H          -0.00933841413955    0.44844261350690   -3.37069555778975
H           0.01110736591158    1.02456393535268   -1.91873529956890
O           0.42241443237742   -1.63526643182498   -1.08206557927852
H           0.97995911582053   -1.38645957933643   -0.19947369802701
H           0.59500439440056   -0.88169795338143   -1.73701479063317
O          -0.98180598907617    1.59083163603599   -0.63996036575954
H          -0.37168497951984    1.49490818843069    0.14839281338335
H          -1.32505424348594    2.48440052532445   -0.58788943678989
O          -1.82067832612550   -0.98229034928863   -0.17688228228712
H          -1.83518807235858   -0.03921882092475   -0.41542692349248
H          -0.57675621113264   -1.49597075504694   -0.76908654586124
H          -1.54898239616659   -0.99212355197026    0.77261609833424
