    19
        -40.92079038
S          -1.28585593477778   -0.70325233983049   -0.24872329494426
O          -0.62948587682133   -0.20790352008122   -1.46040859647636
O          -1.09106464297379   -2.11677736596086   -0.05372375989922
O          -0.93919308023275    0.11286552132513    0.90650589281856
O          -2.83541735400398   -0.46746229355398   -0.46828797502921
H          -3.05708506534968   -1.08781026705291   -1.15574538036601
O          -0.64986783515381    2.67628933253208    0.43255479973982
H          -0.44005771203111    3.11218855461894    1.26098243789884
H          -0.95254591189882    1.76616725304068    0.66271046450568
O           1.54273676584463   -2.32820729432632   -0.02846793486459
H           0.56460950818335   -2.32227130642145   -0.11410488897215
H           1.76751757972395   -3.15329768723746    0.40578151419190
O           1.11493271578049    1.48301874936616   -0.98619419607388
H           0.51480040502220    2.16210042404950   -0.52907604989519
H           0.41580615572482    0.77642235027008   -1.33690036667308
O           1.72537986325290    0.09476795217389    0.99150890951868
H           1.89352776489910   -0.81170950248434    0.64132417212616
H           1.55696210859513    0.94386999330114   -0.17879975650723
H           0.78430053618027    0.07100143624191    1.25906402889987
