    19
        -40.92343609
S           0.44236136666329   -1.37232602814378    0.87570383406535
O           0.03299669001361   -2.01136070691015   -0.35660495479983
O           1.79123496483742   -0.81231817308385    0.77814054452115
O          -0.51909498169390   -0.38336688513310    1.33705356971238
O           0.50597208054266   -2.48104510980384    1.99318321435764
H           1.17389304278316   -3.07328472138019    1.66209813976224
O          -0.09821822189339    2.20539747439730    0.84657933701644
H          -0.92144411586221    2.36529256166919    0.37207017477714
H          -0.22711179160395    1.34502183765658    1.29754583800608
O          -2.13219941848445    0.60138811183055   -0.52760151215252
H          -1.65099748951880    0.15283461503822    0.20246530045035
H          -2.95434093331248    0.12251101517206   -0.64078044580351
O          -0.04773412824118   -0.05410633747392   -2.08993348702076
H          -0.90149184349512    0.31003573123488   -1.77507682794139
H           0.02086725581063   -0.92314199031910   -1.62713712028358
O           1.62818131041265    1.16947798570024   -0.71049105678480
H           1.02440863056801    1.75672232763833   -0.12149294707151
H           1.85680307128647    0.36216087750454   -0.08670371382005
H           0.97591451108655    0.72010743433177   -1.42901789702331
