    19
        -40.92120615
S          -0.44281608601861    0.85840569101272   -0.98412267423248
O           0.39213918735806    1.40912214035765    0.08372703999503
O           0.18605760267304    0.89654771223736   -2.27569314569950
O          -0.99808471827131   -0.43006728771068   -0.60235301545911
O          -1.70955744987504    1.82801572876434   -1.06274217167654
H          -1.45833790112536    2.48909881578997   -1.70082651390744
O           0.55034269002185   -0.07407867788053    2.05735312450752
H          -0.45136466587547   -0.10513329892998    2.21335016760605
H           0.60762278335964    0.63625981398471    1.28258383488740
O          -1.99614755532520   -0.00630108742947    1.78164697136680
H          -1.81656632744020   -0.22862128908540    0.83900409739743
H          -2.42304943865490    0.85245668241735    1.77665916250290
O           2.16641441199764   -0.67090253638258   -1.41473040386324
H           1.49388248346240   -0.04913384695677   -1.75420683181767
H           2.64698212251417   -0.99176434603942   -2.18079669896206
O           0.87159217145522   -1.99469685569949    0.49794522788579
H           0.04122031363350   -1.77566930539972    0.03404871536577
H           1.56203512081782   -1.66975686621160   -0.11887027580998
H           0.77763524529809   -0.97378119683479    1.52802338991659
