    19
        -40.91040896
S          -1.12697076643523   -0.07449931386449    0.48226621444407
O          -0.07859506868949   -0.63455834585363    1.30794114626153
O          -1.39500964725031    1.31281379902293    0.80885629818051
O          -0.86955328476956   -0.24872675349398   -0.94900098875808
O          -2.44629616089329   -0.89632914912455    0.77419574094891
H          -2.48642353461893   -0.93894636868691    1.72527923790786
O           0.62378871207061    2.69664890201305    0.00095628026694
H           0.27236878329770    3.48765643133636   -0.41397903928386
H          -0.15935191446064    2.22967476548578    0.40705517747221
O           2.35759165118075   -0.63113294101230    0.42908812124718
H           1.46049501152774   -0.80762715877948    0.81758688716937
H           2.85418825087830   -0.16293052074974    1.10422341084932
O          -1.02749165835196   -2.99034153292743   -0.69408681273876
H          -0.93645109027258   -2.05174358235577   -0.89955370562978
H          -1.93960588060051   -3.11016661060259   -0.42430237217330
O           1.36482986946610    0.74409757393533   -1.41707421108238
H           1.92389054196555    0.16410371280692   -0.74546228672796
H           0.43368745220749    0.27862464561907   -1.39207116093011
H           1.17490871375643    1.63338246723344   -0.92191792742218
