    19
        -40.92011101
S           0.66090100047108   -0.84905549114772    0.16587768427967
O           0.64399160272835   -0.32839721301553   -1.20401657070043
O           0.71207629929578    0.27650030313307    1.12180589918145
O          -0.44491455720631   -1.72703536508664    0.45079180061407
O           1.97536638091869   -1.65472523935990    0.35162751360306
H           2.66406145665084   -1.09585978223472   -0.06882908349375
O           3.24541484905698   -0.01964150583609   -1.27448306626240
H           2.28716466566391    0.06149971870933   -1.45723735096006
H           3.63558564436688   -0.45542215769156   -2.03565841047992
O          -2.62829102259324   -0.77801747759915    1.50941657878221
H          -1.89285008359458   -1.26132498207770    1.05549846595749
H          -2.66489985634750   -1.12832679507126    2.40192971392577
O          -1.26886820024691    1.44018244232013   -1.43155432876806
H          -0.87398961414584    2.19146089571783   -1.87906683311326
H          -0.59480963309789    0.71615256388811   -1.45460257458319
O          -1.44378459479825    1.42996080980163    1.11150940462067
H          -1.51490749677785    1.56257150569345    0.10253993175122
H          -2.05753286620998    0.63590514443139    1.33227730828533
H          -0.43971399413847    0.98357262542124    1.20217392736003
