    19
        -40.92246928
S           0.90311544774939   -0.00463821731502    0.57394728790034
O          -0.05859796997918   -1.16549543674870    0.33421987696586
O           1.68523098188373    0.21245697286380   -0.62084455432704
O           0.19809051829234    1.14395106597308    1.05712303706616
O           1.81661262199374   -0.54869426800882    1.69399431159365
H           2.30518009696413   -1.29368730747795    1.26246609879054
O          -2.48175023645875    1.34167223907253    1.14127077057546
H          -2.79425361265520    1.08939860559971    2.01167606297538
H          -1.51121946639626    1.42181438602230    1.20756835852049
O           2.66171180356681   -2.23850487559640   -0.09286685061601
H           1.90869741062024   -2.80435398148986   -0.28517846248188
H           2.56331434563402   -1.44950472010608   -0.65039706009998
O          -0.33229904562352    1.48424818415245   -1.88618704351250
H          -0.42777793616357    2.28368997177147   -1.36247251173346
H           0.51305540251513    1.08707051663321   -1.61497409161031
O          -2.01523434572896   -0.29955030902393   -0.88719309122179
H          -2.43379342140806    0.26185998854602   -0.19208110079027
H          -1.53965939437593    0.33752749027513   -1.47398837735425
H          -0.96042321042720   -0.85926032514553   -0.21608266063948
