    19
        -40.91966015
S           0.87507017885315   -1.19500226029171    0.85967570279949
O          -0.10249718150570   -0.80997446505550    1.86590837972955
O           0.25756925862210   -2.04882845636795   -0.16667549057577
O           1.56362197768893   -0.07127053096860    0.27471563509838
O           1.95083314747537   -2.09060717781744    1.57996429838987
H           1.42653536878132   -2.78427447599133    1.96830385178297
O           0.79923991984260    1.07652182483510   -2.07230861861467
H           1.48520603788025    0.59529214275074   -1.58111777867434
H           0.57301706574861    1.81764778564862   -1.45881247391497
O           0.25957767200389    2.35556187998743    0.17369999600255
H           0.85479450824676    1.66134072895589    0.50119359815989
H          -0.62241112042472    2.10390497844995    0.47084920206724
O          -1.89632942479085    0.55628611413936    0.65091657514539
H          -2.75749039789519    0.37203655002975    1.03069655148363
H          -1.23056643120562    0.05526162228343    1.20602296464476
O          -1.06655930538498   -0.49661380656143   -1.55366379865267
H          -0.31012678894244    0.18327457717299   -1.90187597034245
H          -0.51923779352898   -1.25753786489316   -1.05016607571262
H          -1.54024671150012   -0.02301917617098   -0.79732654877052
