    19
        -40.92139826
S           1.13164986803980   -0.34542345609537   -0.26114590314018
O           0.22677481918461   -1.42528503049928    0.12110486668616
O           0.52729724917012    0.47476443235672   -1.30970865448738
O           1.52346863201541    0.46554999492106    0.88877381377796
O           2.43797633743263   -0.97210919801816   -0.82703454532952
H           2.11337302660411   -1.49891026640331   -1.58583148409418
O          -1.52530636836015   -0.84529854268373    1.94788256629844
H          -0.84463301461948   -1.19676722421753    1.31498321131027
H          -2.37347947513539   -0.93297359427009    1.50728275231510
O          -1.19186894023096    2.13937968632576   -0.33845633778186
H          -0.57864437305044    1.50000947426190   -0.79776824804021
H          -0.95482710672812    3.01021030681193   -0.66445320114320
O           0.68285851456196   -1.98581397280911   -2.51013514731319
H           0.23425226875035   -2.25992244925551   -1.69872248412937
H           0.41068360942105   -1.06892522612409   -2.64605296819144
O          -0.46107177271155    1.44334898180053    1.98057274427399
H          -0.98286395357759    0.56139543376972    2.12641515051132
H           0.47726779681874    1.08221495072547    1.63359945519979
H          -0.85290711758511    1.85455569939957    1.11869440327203
