    19
        -40.92453846
S          -0.56100354158733   -1.15815478607114   -0.81633155878819
O          -1.69930176642452   -0.43158932083897   -0.26542826482374
O           0.20477892757322   -0.30974516152602   -1.72305254583749
O           0.26326006396515   -1.75957551440574    0.21078457008133
O          -1.14207757579166   -2.34806295529038   -1.67738143811070
H          -1.68581850155427   -1.93064778339102   -2.33916797695410
O          -0.53209635287535    1.99941517888631   -0.80570664902124
H          -0.21340990505292    1.21228337204643   -1.31688637384397
H          -1.43366093532386    1.75992168442537   -0.56084388394500
O           0.86851358721401    1.55805027606503    1.24127915137193
H           1.58294446944268    0.92050053690384    0.81910294967756
H           0.31200304168442    1.89958980201761    0.42465430785169
O           2.29871378337183   -0.15277767293164    0.06566893705270
H           1.67528623408306   -0.91082961767939    0.18441593992041
H           2.23531201492254    0.04504878569508   -0.87630909197942
O          -0.77542364761911   -0.12489570807294    2.14551600055762
H           0.20982364232163    0.92458062755879    1.75256105918501
H          -1.30270662556262   -0.23001657671960    1.31441118474521
H          -0.30513689278173   -0.96309516667205    2.22271368285639
