    19
        -40.92136409
S          -1.12491658793755    0.20933715852998   -0.78280047121814
O          -0.88186371489542    0.99691456720681    0.43873788401780
O          -1.07791867932312    1.01978165231589   -1.97433418519875
O          -0.27090671209214   -0.95636580037839   -0.82146402494489
O          -2.61373065309324   -0.32358212519350   -0.63927124666103
H          -3.14449602498756    0.34918530763451   -1.05634370958058
O          -0.92868635897221   -0.96207076779295    2.27332278697331
H          -1.61110063597017   -1.57705751452356    1.99893228733340
H          -1.03430876304166   -0.17258188594351    1.70958078759971
O           1.44615703759348   -1.32962014738837    1.12207956567626
H           0.90487004856334   -1.45957145155212    0.31001769863750
H           0.76790453463681   -1.34008721420655    1.83317078999503
O           1.55591591907950    0.94169091849268   -1.92906714523104
H           0.59725138296848    1.10224617292843   -2.08286598464547
H           1.70872211515602    0.03552213630838   -2.21116047817143
O           1.61888011301386    1.09002273559040    0.61763444903197
H           1.70225888949033    0.04095821551208    0.91926521602259
H           1.78360055024367    1.10778067897049   -0.39290938751706
H           0.60236756958107    1.22749736349481    0.66747516788419
