    19
        -40.92453848
S          -1.47960217569580    0.13823093823521    0.33826859911765
O          -1.38415740056168   -0.34110465584003   -1.03638379950712
O          -0.91800480481191   -0.83644509021135    1.26631270424780
O          -0.90884930613244    1.45808697051563    0.50691639238008
O          -3.01718934996074    0.26937233448564    0.67536378615183
H          -3.37066576668489   -0.60755139649249    0.55750108946642
O           2.12386822363326   -0.06116969843227   -0.45705750001194
H           1.60829302678716   -0.95620883528372   -0.62003025163895
H           1.59982012580887    0.64594875259713   -1.02321728222860
O           0.56418385786519   -2.02137099619294   -0.72406777239910
H           0.34764227403572   -2.30590845783961    0.17166960109536
H          -0.22460964360257   -1.48596884749346   -0.99497817956266
O           0.55795010220480    1.52437844360836   -1.63524097091193
H          -0.00885721210458    0.97844503654129   -2.19304649917713
H          -0.00899886524271    1.71654468099571   -0.84838283926982
O           1.25749814000962    0.46222401256564    1.85128319504017
H           1.91042339033503    0.17885287938022    0.53945827479175
H           0.89810896939662    1.35649730801918    1.81885103284660
H           0.45314642472421   -0.11285336915516    1.80678040956768
