    19
        -40.91596566
S           1.34314083583040    0.92573535909540   -0.60619459098586
O           1.57729031102584    1.45215333699239    0.72506941935684
O           1.91416474026139   -0.38270686915974   -0.81936133331800
O          -0.07809061257151    0.99073714068204   -0.97209849600634
O           2.05463443316547    1.90882664975320   -1.62649764864429
H           2.97723990420398    1.72657538175330   -1.47846329460975
O          -0.14492938012834   -1.59562497648518   -1.89062888135403
H           0.73176145424670   -1.35383526546404   -1.51830205486140
H          -0.50038646598113   -0.74631535704465   -2.17606075986905
O          -1.65185845893034   -2.11486639254044    0.16319522257739
H          -2.46092676318803   -2.50718366673245   -0.17007266058594
H          -1.02677324962346   -2.04120282562490   -0.61831767986397
O           0.05193051517476    0.66589250402606    2.63746484517563
H          -0.04532975510658    1.41841644838299    3.22493330661785
H           0.75060935868321    0.92394822483527    1.97347856364024
O          -1.65830293197141    0.31960942273953    0.82087655012672
H          -1.05928863951009    0.42895215882949    1.66116190720129
H          -1.04886783653471    0.68224181773640    0.04223749783505
H          -1.72601747905375   -0.70135311177495    0.62758008755984
