    19
        -40.92453840
S           1.48538968000278   -0.27056439634361    0.20744749566611
O           0.96254587317653    0.23646243084340    1.47087904814712
O           0.85134920609424   -1.53645108821079   -0.14460937710668
O           1.40483476245378    0.70617242128769   -0.85818585984636
O           3.02102669546000   -0.56906897985333    0.42562012903096
H           3.04911450459477   -1.21628577293622    1.12430873097231
O          -2.08322635158370    0.47477398263136   -0.39645281324012
H          -1.56638312333348    0.14415606196989   -1.24422703926586
H          -1.92611217065853   -0.27805075078719    0.31203544777025
O          -0.54217804844733   -0.35350439974428   -2.21125874494618
H           0.26233678209069    0.12441427133417   -1.89215925186770
H          -0.35298406684830   -1.27639647733983   -2.00428244588838
O          -1.32130019011781   -1.27823622585421    1.24448534862796
H          -0.94338305365234   -0.79293526314956    1.98741023973674
H          -0.52690235810142   -1.56354547741524    0.72498976262181
O          -0.45960481644504    2.18326945207907    0.49676932870067
H           0.12030765843660    2.42715121556014   -0.23399384427886
H          -1.52407664804157    1.28400907933804   -0.03779085523436
H           0.08924566492294    1.55462989660007    1.02901470040051
