    19
        -40.91892668
S           0.42698717351406    1.10597704546436   -0.80825586079570
O           1.75753310848445    1.45571355468231   -0.35949305567293
O           0.31179492841159   -0.21153048737595   -1.38267497237150
O          -0.56895525717416    1.30455545514745    0.26151148035670
O           0.03433390230485    2.13502859577890   -1.94276407397904
H           0.36722473636604    2.97179933665798   -1.63172946379463
O           2.26413296220521   -0.36823075544075    1.41962246603297
H           2.18935271553377    0.29877791948442    0.68982840080824
H           2.83588672154341    0.02179357819165    2.08446668814386
O          -2.37428146339730   -0.35135423799208   -1.14492889550066
H          -1.49456396803483   -0.21889057845967   -1.53644360912745
H          -2.49265039595066    0.39648243538134   -0.55203244108533
O          -0.89658106757665   -2.26178503419892   -0.00213050444852
H          -0.20373364782746   -2.01248166211818   -0.63403286545672
H          -1.69814244609803   -1.81858541610570   -0.36170758109352
O          -0.23776777100328   -0.63121316051098    1.77667748097216
H          -0.54172487692050   -1.41814231042787    1.12521927084831
H           0.78594402409453   -0.63468974415823    1.77174853110712
H          -0.46478937848726    0.23677546596307    1.22711900507201
