    19
        -40.92120607
S           1.10413562516556   -0.75149129510840   -0.34446147759085
O          -0.19802462604747   -1.16321699751449   -0.87014434528499
O           2.01599557419298   -0.31148235986247   -1.36424567241341
O           0.95097812270651    0.15263155552055    0.78369626437801
O           1.73209684821961   -2.07515379204607    0.29204745447951
H           2.21841572801145   -2.47134478310791   -0.42479063602511
O          -0.78463759715279   -1.05480665154665    2.32955392078897
H          -0.57635591818977   -1.99093055966972    2.33567750306875
H          -0.01012088470326   -0.60442020851160    1.92050180203943
O           0.36206237156702    1.66361701692362   -2.06027056297046
H           0.85192840764992    2.28188491747736   -2.60675434759758
H           0.96809819109429    0.91948454491946   -1.87836918498158
O          -2.09974928763930   -0.13508905706928    0.33191161239258
H          -1.39840947537359   -0.61282385328866   -0.29171312192705
H          -1.82433080814572   -0.49560973222053    1.23901011547399
O          -0.87585387662420    2.03834298310726    0.26653268784341
H          -0.10177783594979    1.63275396623050    0.70093064932200
H          -0.59309037641444    2.10694699140600   -0.67067727687265
H          -1.74136019226562    0.87070729444143    0.31156462600207
