    19
        -40.92453847
S          -0.14511529168976   -1.49690018990824    0.24603016461489
O          -0.70656787913172   -1.20958832730008   -1.06950065535447
O           1.28121744660275   -1.19441265396686    0.27712227467471
O          -0.87378253413836   -0.84682687762787    1.31491827920152
O          -0.29563790774039   -3.05133100520670    0.48264417497131
H           0.19622216337392   -3.45687599950939   -0.22547382994553
O           0.12713726804964    2.15626175256984   -0.23837863173316
H          -0.85721552407346    1.80334844687919   -0.19104284933800
H           0.56522945529492    1.59799278939875   -1.00626797668361
O          -2.09002865184224    0.96651499133550   -0.09122248982990
H          -1.80425540084896    0.29270356586778    0.57343329887650
H          -2.17619749421590    0.45648030366795   -0.90542441415067
O           1.06797707891401    0.49537735573496   -1.88250100742714
H           0.35664195750416   -0.18336054683579   -1.75726356396403
H           1.83403256365570    0.10317985472285   -1.44722485352603
O           1.14333418541436    0.95648544742949    1.73168883291360
H           0.41471054531921    0.69097600687684    2.30470848267169
H           1.37717746669624    0.12293121610573    1.25187855399625
H           0.58512054286407    1.79704385979578    0.63187622002056
