    19
        -40.91892666
S          -0.90454917878074    0.60666467882415    0.93389479602068
O           0.48088189823779    1.00493662615975    0.90142986966962
O          -1.79376229870854    1.44733840845127    0.16150236858995
O          -1.05418473496574   -0.81362382253956    0.56495937293029
O          -1.37142431537949    0.69964435958187    2.44185430912042
H          -2.32311226113778    0.69614126685560    2.39776118924485
O           2.33140868386950   -0.40882067450014   -0.56032306830324
H           2.05270257648149    0.46106016731382   -0.23247217209400
H           2.30720614904990   -0.97075815420011    0.24700428276111
O          -0.83687808551382    1.23940322349082   -2.24497502459829
H          -1.20132161620477    1.44905852125426   -1.34708187698817
H          -1.56894754195771    1.32310938002455   -2.85990130552031
O           1.43961417665581   -1.36627267900699    1.76977488262995
H           0.63845059610095   -1.88383639013304    1.64747194108885
H           1.13815868055719   -0.44239120818799    1.77664571319033
O           0.13922386009871   -1.01640809442731   -1.59999224474946
H          -0.20074062594430   -0.14937357306306   -2.02450826866868
H           1.13384830349885   -0.81752238800609   -1.27162249456962
H          -0.40657425594024   -1.05834965785313   -0.70142227973806
