    19
        -40.91898892
S          -0.34390096456884    0.31947980504380    0.99533090783450
O          -1.47434129945865    0.08406337076951    0.12145190480029
O           0.62430601673593   -0.78321821630022    0.91158367468614
O           0.30550555894086    1.60072961200489    0.70830198791070
O          -0.83228891986159    0.40309977434713    2.46839057567244
H          -1.02942337662446   -0.52742709234468    2.70687081836995
O          -0.75351630488700   -2.22498216620045    2.63371748118616
H          -0.17502541131704   -1.97284764588444    1.88751980971121
H          -0.18246609633421   -2.58752933683719    3.31510417531780
O           1.81393124465345   -0.60903186524280   -1.38676722476529
H           1.35538561939981   -0.77311854935785   -0.51892079189342
H           2.75244750155004   -0.70514290163089   -1.21152190298822
O          -1.50567134609760    0.99999962459735   -2.29083433082787
H          -1.65190623673920    0.68472816079720   -1.35799229083088
H          -1.58961943201252    0.22251085629764   -2.84751262214773
O           0.83502634747869    1.71533008845656   -1.69242569988829
H           0.63539364199410    1.81173190732871   -0.64293021616015
H           1.32651051675190    0.81599789687140   -1.71924266710816
H          -0.11034705992166    1.52562669755428   -2.08012357897207
