    19
        -40.91907731
S           0.58781811407833   -1.42719704794195    0.63156004651481
O           0.99646186814746   -2.33637239901884   -0.41346492212538
O           1.33975841366706   -0.15564403184535    0.57193060043376
O          -0.83467874379011   -1.17968841736857    0.68437278880145
O           0.99574771715947   -2.08652251516335    2.01159214888229
H           1.80769522464126   -2.55461956913433    1.83502612177102
O          -1.08432146607499    2.48906557704643   -0.39431406081599
H          -1.05483098329975    2.05601769719431    0.50818876712821
H          -0.85099334742412    3.41045595796207   -0.26747036238664
O          -0.68309808170688    1.19213037279715    1.83092403353160
H           0.27546940743548    1.07484397250287    1.80634533447514
H          -1.01549084855029    0.30933976947425    1.57395159242767
O           0.59026598933814    0.96210971946075   -1.51241974055050
H          -0.10569400799148    1.64436616248241   -1.14952224653348
H           1.02649935025006    0.53910480449210   -0.64931722543250
O          -0.66531704656577   -1.15855148673616   -2.06539937507889
H          -1.37602752276217   -1.15962902856864   -1.41106020973892
H           0.05460028804693    0.16084847682191   -1.90391915195930
H          -0.00386432459772   -1.78005801445574   -1.68700412933447
