    19
        -40.91907732
S           0.37025713138905   -1.18201829346479    1.11671721343170
O           0.52529681773590   -1.32290621140275   -0.34681649516329
O           1.63471635549379   -0.91828229824890    1.76266356101784
O          -0.67085375383948   -0.23140045833832    1.43288143959694
O          -0.12604564309600   -2.59836268335189    1.61996654080537
H           0.66727084371070   -3.11481109774702    1.73606527871522
O           1.15136900896116    0.93281725209643   -1.16861607661042
H           0.24068578031503    1.29153893726054   -1.52004287227214
H           0.96261643568735   -0.07380603986939   -0.91314189709545
O          -2.07464080369976   -0.58032228476771   -0.77408940395558
H          -1.39551739673700   -1.21689386014774   -1.03250196037641
H          -1.85069543270069   -0.39215715099908    0.15879808229064
O          -1.17603940469977    1.59243615010870   -1.89942818201355
H          -1.65533305421671    0.82067914992224   -1.47803491621773
H          -1.38575187360681    1.57165818682370   -2.83488673202676
O           1.34536742253056    1.63715878422942    1.24918674601485
H           1.31149849896916    1.36999074630934   -0.23831493161611
H           0.42576410879085    1.63119230492539    1.54509951213395
H           1.70003493902832    0.78348887664727    1.58449510334228
