    19
        -40.92218940
S          -0.18140443825360   -0.90804137801462    0.69472424047590
O           1.14614351753953   -0.93318339165098    0.08938166221778
O          -0.42865983071773    0.36661312892129    1.36126817060263
O          -1.22215174313242   -1.20534435227513   -0.28937415089115
O          -0.25151823261467   -2.03799899481079    1.76296191768126
H           0.46107224735043   -1.78060925627303    2.38431475703448
O           1.72219577737660   -0.60073979959965    2.74414910442166
H           1.10652237024555    0.14023947571322    2.66629209400420
H           2.11667399811749   -0.68657923001229    1.86630113548027
O           1.24496618368565    0.13082747547208   -2.27298722566608
H           1.54603562439664   -0.55803667068876   -2.86943998056382
H           1.31778725054555   -0.24802053256208   -1.35573774129569
O          -1.31943072389557    2.22877353521270   -0.20779544719352
H          -0.93412253688419    1.59914093163564    0.45948793963597
H          -2.17839576629078    2.48549569053428    0.13457114046501
O          -1.24066296782126    0.51536340578653   -2.05946802623479
H          -0.23735064090246    0.44702830114114   -2.30457222853886
H          -1.34558164844159   -0.28905193799359   -1.37270556911724
H          -1.32211844027282    1.33412359948491   -1.43137176251196
