    19
        -40.92120595
S          -0.39581683523800   -0.99929136073529    0.86443606155017
O           0.19392917319140    0.21086928884926    1.43737305299104
O          -1.77954250530479   -1.17691349195133    1.20963534185785
O          -0.09145700132596   -1.10870077146596   -0.55320731598521
O           0.40200403945170   -2.20911240890240    1.53567483641510
H          -0.10912271262864   -2.42451915084129    2.31003643147281
O           1.41291216546285    1.58050491522733   -0.22382944682290
H           0.90344125382150    1.12786598248545    0.57820424515537
H           2.04398357588884    0.83412562130095   -0.49439544740941
O          -2.42817731845062    1.11771525821463    0.01361509005720
H          -2.22634435694865    0.30287464835094    0.51326464101239
H          -3.38142490225492    1.13768702344662   -0.09428587452047
O           2.49215509551636   -0.69811134824539   -0.68076755616435
H           1.56711817519567   -1.03298770484908   -0.73018058341260
H           2.90249056527137   -1.15478806989388    0.05595322979148
O          -0.48521938021492    1.22352181625805   -1.80233307120817
H          -0.39849787022284    0.25559943921997   -1.71118327541463
H          -1.27351257591405    1.42763442217813   -1.25457805669791
H           0.65108141470548    1.58602589139784   -0.97343230264303
