    19
        -40.92453847
S           0.29594107649502    0.14678057176085   -1.48779885524121
O           1.28556433304815   -0.76815825085584   -0.92927680454668
O          -1.04708718800072   -0.40951395370866   -1.37150177258783
O           0.39475707509665    1.47931743352123   -0.93026437846187
O           0.61132909479918    0.28233831961342   -3.02955118769397
H           0.54248352141164   -0.60337027699383   -3.37396171808444
O           1.73387275239432    0.90333005988998    1.21908413049461
H           2.23668448505560    0.16265318707620    0.85990434237312
H           1.32650098614326    1.31568897491531    0.41814028861576
O          -1.90253487756681    1.15349333226765    0.52250101867094
H          -1.76718552560938    0.54593768111121   -0.24705746995587
H          -1.43651177194719    1.95627015299700    0.26142178358829
O          -0.27454986781832   -2.10468745494984    0.65067591073723
H           0.43253661878080   -1.74898833473092    0.05415571722655
H          -1.06782430680844   -2.07663142890659    0.10284970500220
O          -0.40215193994992   -0.07296746476125    2.13452074324651
H           0.52211314422743    0.35992808475532    1.90281382519737
H          -1.10358988993629    0.48033463759264    1.58893514976899
H          -0.38034770981321   -1.00175529059352    1.65440957164968
