    19
        -40.91907733
S           1.25109313399437    0.40977678807415   -1.02375871718071
O           1.36201349080533   -0.52731658808880    0.11439988000485
O           1.15236658703672   -0.29139903812374   -2.28244977918594
O           0.19960409969406    1.37363051338653   -0.79373190274845
O           2.61766314828326    1.20844234794408   -1.03878671946291
H           3.22367406981565    0.65834332749466   -1.52836413618146
O           0.31784173128121    1.32145805065432    1.84191990083233
H           1.01819398517763    0.66455845426526    1.73591227666551
H           0.18564031565817    1.64551830608119    0.92905770425854
O          -1.77436691264315   -0.21477359838547    2.08146609610694
H          -1.04855803159197    0.47509032398484    2.06717466609249
H          -1.80704610616276   -0.56440240467098    2.97375802895914
O          -0.83368493571054   -1.67505025609430    0.24606148170095
H           0.15281848038569   -1.29999283734500    0.22917197645485
H          -1.30378500860775   -1.14795804446050    1.00942990066123
O          -1.43446049300310   -0.53384935605886   -1.92561716361279
H          -1.52269207404545    0.39092572622907   -1.66052829586936
H          -0.53604750346104   -0.57399409027894   -2.32337161472397
H          -1.22026797691258   -1.31900761461336   -0.65174359277562
