    19
        -40.91907733
S          -1.64520333368526    0.12320608505982    0.24351732005624
O          -2.38431800597589   -0.48381361371689   -0.83857997579854
O          -0.76172647599831   -0.85377655620628    0.91494879168102
O          -0.90877347776185    1.30925702415210   -0.12864641192585
O          -2.69740537525352    0.55638623725395    1.34389776121898
H          -3.38049525564269   -0.10842447080440    1.31243948982708
O           2.73415575208171    0.15628507212868    0.16491625049555
H           2.13193561794486    0.64370657433260    0.79947217147575
H           3.45138667527251   -0.20727581931942    0.68730238488455
O           0.98657049515544   -1.42261067256981   -0.75107036386117
H           1.77849429128082   -0.82396809281091   -0.44119862470475
H           0.25213974486372   -1.30468112528820   -0.00216746080989
O           0.92115805588984    1.13094729968080    1.76421892825644
H           0.46686993248329    0.32477277407544    2.04162020353502
H           0.30435470438503    1.51161209728655    1.10813301410026
O          -0.34132018636202   -0.08756474783760   -2.43446847405764
H          -1.23031541048852   -0.33530133909874   -2.09494470314013
H          -0.22553721674624    0.81950455490079   -2.12288442223273
H           0.54802946851847   -0.94826128121339   -1.56650587898145
