    19
        -40.92007410
S          -1.23402531141219   -0.29687504080401    0.58071388155192
O          -1.68666659774333   -1.61405424555357    0.19292412193809
O           0.05352058548339   -0.36225883290890    1.30125697574611
O          -1.18118149927869    0.66856636367777   -0.48530478672592
O          -2.27269192126661    0.25013604915902    1.64640542330664
H          -2.54153207319907   -0.53058044201282    2.12135091557329
O           1.77852398970768   -0.67043998212195   -0.49676690181194
H           1.23435956054938   -1.30188729573466   -1.08397953105868
H           1.20460544628450   -0.60775281209291    0.35388211664723
O           0.63912771101964    2.26644624573032    1.28999390959462
H           0.45201872521101    1.32629996587290    1.47057108699317
H          -0.21163794913760    2.70933443573368    1.30210802138327
O           0.06655134515394   -2.15838196804070   -1.65770666386917
H          -0.68609125637664   -1.97918865705105   -1.04105444437357
H           0.15645138123315   -3.11273073012942   -1.70570537629570
O           1.15631784425734    1.60487976071177   -1.23291926890426
H           1.23037756006598    2.08869066510669   -0.37751596384027
H           1.64184714378834    0.34229283553978   -0.91564555372873
H           0.20012533573575    1.37750367503190   -1.26260796214403
