    19
        -40.91907732
S          -1.14099848867001    0.13070799747558   -1.20926181237372
O          -0.85344595529654    1.17363311522179   -0.20156203741148
O          -0.52779352081616    0.43598102276532   -2.48066610200081
O          -0.82423805670360   -1.18139946695503   -0.69391381914388
O          -2.70878477122407    0.17978289388030   -1.42194211193776
H          -2.85242191347028    0.86728224195138   -2.06712084149070
O           1.34389973137166   -0.37706057000051    2.36194949116980
H           0.36655702636501   -0.57334494949256    2.26613283868541
H           1.45766395830174    0.05733160292693    3.20921396689699
O          -1.20260065664818   -0.60190131552590    1.85248510750055
H          -1.41123898643196    0.29301382831962    1.55448812741751
H          -1.16333814896849   -1.10486483280906    1.01503979737566
O           1.57877223543107    1.00133048132488    0.25697660847376
H           0.55796948260410    1.20333777896041    0.07992141703438
H           1.59034929968741    0.45350326587615    1.14087358384921
O           1.70668952063310   -0.65419123169186   -1.64628281827829
H           1.03070262831868   -0.22137752287497   -2.21433801418868
H           1.80950132644621    0.34081893587110   -0.51290214487103
H           1.24275528907369   -1.42258328521573   -1.28909124672501
