    19
        -40.91941575
S          -0.22101296043398   -1.53381688425132    0.46078430886067
O          -1.08255322628828   -1.30255079547254   -0.68463028061555
O           1.19020993921716   -1.56136198109402    0.05781663399374
O          -0.46130640962475   -0.60971032066023    1.54623930771650
O          -0.54407811578296   -2.97468705428742    1.00782894899359
H          -0.39363320903688   -3.53062395132221    0.24963169001030
O          -1.92090449892006    1.28846035102975   -0.11024624164690
H          -1.69252154143725    1.54342421437838    0.78604679520364
H          -1.88565551094562    0.31980698212646   -0.12798896713439
O          -0.28624741752918    0.76899190690125   -2.16640839314573
H          -0.59629702723173   -0.12760083518234   -1.91796447322106
H          -0.90043244186288    1.34828263091172   -1.67476838694970
O           0.93262363404309    1.57676991206327    1.45321156509363
H           1.53730429045796    1.60329976471273    2.19703844276515
H           0.36452885456055    0.77358732896560    1.58316231674628
O           1.78404654863945    0.69207732498338   -0.78140574126291
H           1.66469285585830   -0.30743887360213   -0.47511575659434
H           0.97172533243108    0.82125875639074   -1.46571580523140
H           1.53951092387920    1.21183152340597    0.06248403642322
