    19
        -40.92025483
S           0.89373689303564    0.09169389676972   -0.15231792584252
O           0.12256740175801    0.25019757429312    1.07095265498811
O           0.86911957676153   -1.30574158602681   -0.59589597118633
O           0.42158100279424    1.00407509075028   -1.19186617054011
O           2.38579837742996    0.41834516460953    0.13889369977596
H           2.46962528541871    1.39354055027195    0.03537822045981
O           2.10383687020804    2.92604143141431   -0.58896202466295
H           2.62660048306081    3.19935932258887   -1.34649994036706
H           1.32030991891270    2.45955299166831   -0.94341285572835
O          -2.09015582127147    0.35813733799080   -0.78595542681355
H          -2.20480032949050    0.72732703228500    0.09522939637449
H          -1.21171696652299    0.68813623033097   -1.08724345240508
O          -1.19034087745512   -1.75071663361644    2.06794584275142
H          -0.57462539625790   -2.32233680653433    2.53064521914361
H          -0.68581187785184   -0.92554386011126    1.84033222386654
O          -1.45960564764970   -2.07339131060580   -0.42747556777723
H          -1.49232359591994   -2.11320675858965    0.60121053004879
H          -1.88561909494562   -1.16372420628251   -0.66360030848191
H          -0.41817618202653   -1.86174546122066   -0.59735814360465
