    19
        -40.91274178
S          -0.89021950270170    0.41745383753971   -0.86430452988137
O          -0.22899541831463    1.68676215555342   -1.09931637163781
O          -0.14915579151583   -0.71992895646077   -1.35170347174485
O          -1.22940721125631    0.28882742018682    0.56693686513526
O          -2.25608226253896    0.44514201214396   -1.63806146076946
H          -2.74101725972002    1.18777393027526   -1.28934902930204
O           1.68476317385717   -1.71813811362011    0.22036047907302
H           0.98281668136005   -1.50116877535329   -0.44089387912937
H           2.52546481626240   -1.58052970050151   -0.22189396546908
O          -2.23057718596872   -2.20845345773160   -0.16850801739215
H          -2.12755532026215   -1.42237288436711    0.37680218694878
H          -1.61223593163694   -2.09003510430969   -0.89518666265439
O           1.82930310143224    1.98962984166759    0.42691758878413
H           1.82606832334019    2.89684618109792    0.73941943586194
H           1.10585552371592    1.92896770173754   -0.25594709351862
O           0.90552090118918    0.08362013479685    1.80283236241095
H           1.30020774094071   -0.73627501569689    1.30403529061457
H           1.37772795319673    0.90032867318982    1.38303961132914
H          -0.07248232138393    0.15155015985599    1.40482066136604
