    19
        -40.92045131
S           0.31819696036194    0.64334350605396    1.42910794053032
O           1.57741979367392   -0.05030785656044    1.23525889971267
O           0.03758472863399    1.57307658873550    0.33796205795728
O          -0.80071102597148   -0.25526590656520    1.65639820592028
O           0.48871656937122    1.50612884065360    2.74543121253103
H           1.42589446431722    1.67399123870144    2.77642912558297
O           1.11032066855618    0.82763708310086   -1.88507304329724
H           0.99556568057196    1.54638827593957   -2.50967030191995
H           0.82799510503688    1.17248294374608   -0.99527080245832
O           0.51890775318396   -2.21693104917105    0.29971982227062
H           1.12170352625238   -1.49613636672149    0.61669356890140
H          -0.20307144057268   -2.19235394028433    0.94104197526304
O          -2.17130994349791    0.17500514658371   -0.48727527628120
H          -1.90231775415337    1.09557538671973   -0.59102972462575
H          -1.83809615034560   -0.04847574290293    0.41984399227779
O          -0.45184267322592   -1.16084847389767   -1.75641597280252
H          -0.02433136396237   -1.71494923544656   -0.96165731789563
H          -1.26297938770763   -0.65920588566744   -1.31872480864749
H           0.23235447949554   -0.41915455305297   -1.95276955305989
