    19
        -40.92136400
S           0.64126693986044   -0.24871526233324    1.20384196883046
O          -0.46173536779379    0.72373347412611    1.10711545199329
O           0.29890980485771   -1.38437753732927    2.02348860475991
O           1.14204626199954   -0.59080994995650   -0.10839660469820
O           1.81001553559878    0.52778788231397    1.94709082150572
H           1.66286870862067    0.34368300039985    2.87058591667898
O          -1.03330968843430   -2.44162602245529    0.01036274731889
H          -0.61618772988578   -2.18686770293178    0.86451960302064
H          -0.30604161023810   -2.72363781759081   -0.55146091524466
O          -0.00276827518823    0.46952326473969   -2.21228244720846
H           0.16189845175458    1.39917658746245   -1.93932892777461
H           0.61271123693083   -0.03473726463943   -1.63212951230992
O           0.62322619126369    2.49268242169817   -0.59545497391530
H           1.55235134049592    2.55635138484947   -0.36766423770011
H           0.20209651414209    1.99104812512112    0.12789022536905
O          -1.89843618553876   -0.16375534612224   -0.74871915082979
H          -1.71687360375428   -1.15012529579801   -0.54319277552617
H          -1.49019542376480    0.30056017133816    0.07097340382306
H          -1.18184311096144    0.12010587708183   -1.52723920806367
