    19
        -40.92136351
S           0.71759777451387   -0.46949742173693    1.08959556063823
O           0.88818765042111   -1.05511972154823   -0.25193884733841
O           1.91078834936006    0.19524464104370    1.55138126750809
O          -0.47712283789414    0.34203658531044    1.14839693343574
O           0.47103258084696   -1.70873860366429    2.05099757577929
H           1.34473593731501   -1.96226698487498    2.33506776461322
O          -1.59329436479838   -1.99242348781065   -0.66587090069750
H          -0.63982129998032   -1.81767452892392   -0.55400120142481
H          -1.90282608054142   -2.32452310648927    0.17855329387399
O           1.31397754492616    2.30132512917068    0.08552224887967
H           0.58556422951739    2.66843515647934    0.59412774842313
H           1.70394257729305    1.60311928712720    0.65931987761680
O           0.41841910839332    0.85148071009709   -1.81364064270483
H           0.80601215641723    1.57315051722009   -1.19910932790551
H           0.71767890669036   -0.01001998395630   -1.34149402101288
O          -1.91841484893444    0.62843183234873   -1.02092794106844
H          -0.65827472515788    0.83385299713129   -1.61718591982040
H          -2.08234122009146   -0.33315894658549   -1.14029605967512
H          -1.60584141827533    0.67634591966418   -0.08849739912777
