    19
        -40.92343662
S          -0.05363082589491    1.00317672199043    1.35527157408645
O          -1.18708559070809    0.15476646923638    1.65582271332180
O           1.11783240890446    0.24520208000177    0.94505462444970
O          -0.39276896100969    2.04329960294667    0.38282909400774
O           0.34731198740761    1.75259478146428    2.68179610262174
H          -0.44320723092543    2.23893391616495    2.89429373661595
O           1.69749524648014   -0.00536106149850   -1.64769540684016
H           1.68699456397110   -0.96858735455704   -1.67175230488341
H           1.73658693047352    0.22495554218854   -0.69609361494412
O          -1.71138248506100   -1.02759922450189   -0.61848312625170
H          -0.97493752199393   -1.67135693200666   -0.55746413634613
H          -1.74128002222392   -0.62041576007198    0.27992828819025
O           0.63302162783754   -2.18662725062130   -0.00331409223762
H           0.85144133887913   -1.35551645565936    0.47347106953975
H           0.63931177796225   -2.88291125086272    0.65487316092284
O          -0.67491235073731    0.90314056288329   -1.80532893570629
H           0.28992088810240    0.57380018532088   -1.93509386895138
H          -1.21482545866129    0.06178686850512   -1.42705208211023
H          -0.60588633305100    1.51671858171650   -0.96106279559130
