    19
        -40.92174067
S           0.43681119448629    0.69616188470632   -0.35593759778208
O           0.31315384488427   -0.02305896420167   -1.60619640768669
O          -0.93461049068372    0.92824660808258    0.25138911490127
O           1.31465281331086    0.08564592530397    0.59877459642307
O           0.94218796766594    2.12384172697969   -0.65662296281575
H           0.48943628119381    2.39967884057580   -1.49526939013321
O          -0.01824471044424   -2.38322465283975   -0.32272270956418
H           0.82072043716788   -2.44337106373639    0.14171548982767
H           0.09005056481501   -1.67098299797323   -0.97437102855210
O          -0.23742717724080    2.17942696408986   -2.96841046206635
H          -0.23741541515599    1.22672929411982   -2.76049496661220
H           0.31833785852573    2.29653897874717   -3.74307306545636
O           0.45815047067339   -0.79744220682465    2.99305693454275
H           0.92822751564351   -0.49611097895004    2.19250657033827
H           0.53180938971829   -0.08854691759900    3.63410295252654
O          -1.63357055901526   -1.15143015652409    1.38824936308815
H          -1.22781733124758   -1.80133701961832    0.76716057594357
H          -1.02655513387575   -1.12831011254027    2.16354888155423
H          -1.32789755042118    0.04754482820443    0.75259409151713
