    19
        -40.92335452
S          -0.07268578207894    0.06968251219825   -1.49122118151146
O          -1.38371835956134   -0.37243917804838   -1.03599538136537
O           0.22881770198335    1.41836365667704   -1.03133731964449
O           0.97817262996437   -0.87775134482750   -1.15004574654449
O          -0.11540846028337    0.11221506649287   -3.06947080009496
H          -0.80465554060237    0.73401191093776   -3.28408630692182
O           2.11168546976296    0.56781715169492    0.71154490128305
H           1.80489123220567    1.38614627691193    0.29636154441405
H           1.96972020099667   -0.09648638986476    0.00109321311262
O          -1.45834645000147    1.30894611842115    0.96075277143986
H          -1.84039052145760    0.64470427724222    0.35213519600246
H          -0.83740853397324    1.76641174595833    0.35903402034329
O          -0.34360024133563   -2.16229402888118    0.70555280448364
H           0.30082647002139   -1.94661827655574   -0.00480285653496
H          -1.19106480438956   -1.94671143385998    0.29188255091876
O           0.18181823292223   -0.16887726365805    2.16566232505661
H          -0.55394983230730    0.49362112759729    1.81124419285458
H          -0.03984961833207   -1.07962339639815    1.70449505972641
H           1.06514618646666    0.14888148796710    1.70720099297778
