    19
        -40.91821039
S           1.02269992475129   -1.11944007493529    1.28198330497275
O           1.40297548176465    0.28429810619944    1.33549091442664
O          -0.42056732561139   -1.27158004336246    1.53330018383408
O           1.45050232336175   -1.78279758374800    0.07758614632824
O           1.73218441683449   -1.83039064756797    2.49843391409779
H           1.36817325548144   -1.36858540130285    3.24757539950721
O           0.77098981176719    1.66692036533143   -0.72789162668044
H           1.41270283481141    2.37582035127639   -0.79569594479758
H           1.03359907205277    1.14901514777614    0.08792576926827
O          -1.81560275197022   -0.74044429176911   -0.42425190928312
H          -1.28633213689964   -1.02539858590979    0.46460847077066
H          -1.99472615206283    0.25228590700239   -0.32985231360244
O          -1.87849222649049    1.83758579380882   -0.38482860359384
H          -0.90180399364937    1.92498680950729   -0.45491909335896
H          -2.25610988934221    2.26633834664625   -1.15512614382222
O           0.18184639000822   -0.72757484992004   -1.93639361332075
H          -1.06906931623985   -0.80940378591698   -1.16838565252313
H           0.49039011213812    0.18604827823712   -1.80770371928710
H           0.75664017843970   -1.26768384120868   -1.34185547251536
