    19
        -40.91677666
S           0.29452329388136    0.81256734695673    1.22427859048235
O           0.77349754327792   -0.55781740146380    1.31491284387709
O           0.51940556516583    1.32753544460084   -0.13953167153351
O          -1.06523068161368    0.99399758277845    1.65414949705534
O           1.20578451990949    1.68233414990760    2.16977100642353
H           2.09710937435020    1.41806048694946    1.96135610419747
O           0.21730372349931   -2.10420099671207   -0.81386991641601
H           0.26990391247093   -1.81962000006690    0.12117449206833
H           1.12863830269113   -1.99386644727099   -1.13737734275488
O           2.51368667126109   -0.59322205219304   -0.75551317720617
H           2.05921584488697   -0.60343908296671    0.10490739404432
H           2.31070897787292    0.26521353305099   -1.13717416047667
O          -2.88792706295996    0.18791851887571   -0.00968239242634
H          -2.29272623473207    0.45154387466290    0.73751048033618
H          -3.53145668673481    0.89336901844551   -0.10356617668284
O          -0.94311147945267   -0.02978567495805   -1.61308879023251
H          -0.52600416609645   -0.97644253206558   -1.39817797351270
H          -1.83147129850844    0.01737455634743   -1.09437902622524
H          -0.31185010915503    0.62847967510794   -1.08569979101490
