    19
        -40.92136403
S          -0.45172775912184    0.84574847917331    1.00170937232326
O           0.37169624686529    1.34680683319416   -0.11291108708231
O          -1.78606296727197    1.39197038518113    0.98485238231430
O          -0.40009725961393   -0.59725683478401    1.07098146087043
O           0.25791211587403    1.38869190250186    2.31416399643377
H          -0.16317532049573    2.22791435044771    2.47758909680087
O          -2.48032083572560   -0.34230297037416   -0.87322732151073
H          -2.52324079775711   -1.14895993828836   -0.35217009828432
H          -2.39092716656116    0.38516530355929   -0.21638263912646
O           0.98846869857344   -1.89966724068141   -0.72988428633924
H           0.43942003266728   -1.68774144924733    0.05933931038469
H           1.83728630496375   -1.44866092983994   -0.52558282890891
O           2.62155424767063   -0.06012957197017    0.29575025234019
H           2.74403053384435   -0.11061552337507    1.24527721137244
H           1.91133016577092    0.59286247590384    0.14957249544843
O          -0.21234922757983   -0.16417616758335   -2.02845015062147
H          -1.18888578738861   -0.29621660806353   -1.74914962515854
H           0.08685144071165    0.58997585390016   -1.39866654009802
H           0.33823733461437   -1.01340835965484   -1.61281100115404
