    19
        -40.92120517
S           1.30624834373390    0.15177286012957    0.41103159011388
O           0.33503708000945   -0.35174538249935    1.38243692615043
O           2.31650245024306   -0.80941471329909    0.06415727040295
O           0.63916927705379    0.78427526492346   -0.71559956911495
O           2.05386249351223    1.35204254914183    1.15441601343344
H           2.81577483224271    0.94198538154909    1.55268720194101
O           0.46277422372190   -2.47574844949533   -0.89141621935169
H           0.90831358418790   -3.14694403504682   -1.41270008344370
H           1.16581915187421   -1.92289894765039   -0.49905388631355
O          -1.07663907644352    2.41337747100803    0.40738350974834
H          -0.64689800491517    2.82289213353886    1.16055311457942
H          -0.36246349513264    1.97548858712102   -0.11065237754450
O          -2.01138602402147    0.04678773604476    0.70894068604466
H          -1.90137165597941    1.05176432384761    0.62865099979877
H          -1.07407556595733   -0.22362288154041    1.10544553378447
O          -1.40208579505323   -0.70730797341025   -1.59011478104638
H          -1.92592672495033   -0.32341578262321   -0.28914082597631
H          -0.69284262110723   -0.03862731554478   -1.63750496932509
H          -0.90981250301597   -1.54066082621648   -1.42952013387904
