    19
        -40.91836649
S           0.62109276595882    1.80544881022554   -0.49282518481118
O           0.46180850503633    1.28454705476526   -1.83806724884664
O          -0.68249433893240    1.95139384206361    0.17390176482462
O           1.56276541247219    1.05596518833470    0.30647608931417
O           1.19697227805652    3.26753455571086   -0.63075769347043
H           0.60092104342198    3.66464438218835   -1.25837194999246
O          -1.95395162285497   -0.15556975188910    0.21214974520062
H          -1.48296093037960    0.80827943112550    0.23367499344200
H          -1.62949561280366   -0.64919483867356    1.03589447550331
O           1.34437159719452   -1.49939128916515    0.47597748056152
H           1.46509233099445   -0.50982812228344    0.42887295496065
H           2.21585980181577   -1.85392310670670    0.66014281176627
O          -0.82700533425570   -1.57810486812964    2.04229724929277
H           0.04901724299989   -1.59259026408255    1.59642149060289
H          -1.12324573431313   -2.48751995263154    2.11281646517488
O          -0.47568021558767   -1.12028438070270   -1.56353198763539
H          -0.11362125292187   -0.25033503040968   -1.86932915806508
H           0.23414730855578   -1.51369939221053   -1.02920425521185
H          -1.46359326446387   -0.62737224753927   -0.59653804255351
