    19
        -40.91892673
S           0.27318242750659    1.27851533213154   -0.58964377806694
O           0.05528451211857    0.12509423086370   -1.42699995557381
O          -0.90059490387064    2.09522866187832   -0.36781072479905
O           0.90706240629333    0.89334650956592    0.68537292649330
O           1.33665840528786    2.18549468531774   -1.32919419573512
H           1.26160792948191    3.03536534232301   -0.90516589352391
O          -0.04909603358714   -2.40498268964273   -0.35581785498475
H           0.92755606618879   -2.30015096367868   -0.41469725543303
H          -0.37757944700440   -1.80208701372759   -1.04172856235074
O           2.29903692885439   -1.16521925857798   -0.65498751380654
H           2.50154289862593   -0.62201212102443    0.11233394637123
H           1.69091561464668   -0.62429579480758   -1.18608349097367
O          -2.54932659086129    0.43788369647335    0.76570399853740
H          -3.10598874409044    0.94103522770543    1.36404107165246
H          -2.02017494448185    1.10109264857987    0.25272307796375
O          -0.55042342134505   -0.90314991652364    1.58022170899162
H          -0.38212758965044   -1.65037777340188    0.83857106103116
H           0.13372303294598   -0.14769044919359    1.31897185900450
H          -1.45125854705096   -0.47309033426112    1.35418959520533
