    19
        -40.92135409
S           0.97063977164736   -0.16191093896227   -1.21147850160775
O           0.66016315879323   -1.56771184732456   -1.07242321608943
O          -0.20943403322004    0.68819524214769   -1.21689434433494
O           1.94890281274403    0.28500013111702   -0.21901603742092
O           1.65088512195278    0.02996050669927   -2.62242595783681
H           2.34891985878982   -0.61757781105712   -2.61065466790938
O          -0.54597421482049   -1.67174607165668    1.25140159329848
H          -0.03035340511568   -1.86348330739655    0.43272345205278
H          -1.40358401305049   -1.33294706124165    0.89933140852373
O          -0.53657355334669    2.22271647495821    0.91280564051347
H          -0.51338823686774    1.75772796045737    0.04564353287577
H          -0.07055973820438    3.05195601964228    0.79088978688855
O          -2.38677923303804   -0.61576563117971   -0.32385724892217
H          -2.69577182498076   -1.22791279717332   -0.99393338843843
H          -1.68807214862454   -0.07877572308050   -0.74600724148141
O           0.76510857876111    0.30005246803090    1.97144528208926
H           0.17819390292367    1.10582823979614    1.76455970562135
H           0.15354711643934   -0.58820172753319    1.79536626638605
H           1.40413006920581    0.28459587374005    1.15252394578249
