    19
        -40.92343660
S          -0.40528159687605    1.10140153785459    1.21184633993970
O           0.32188635830860    2.05737046118040    0.37549991483296
O          -1.73109293698050    0.83256049638173    0.69706950262474
O           0.36386310308686   -0.11288013925696    1.43386255818911
O          -0.56925610065451    1.78428043164122    2.62206180039807
H          -1.05473127607009    2.57673259037884    2.41498122118101
O          -0.42488543857811   -2.23581495703641    0.04892144725282
H          -0.20410397275383   -1.51235195693032    0.67636928129885
H          -1.07460959092956   -2.78461706587921    0.49010865733256
O          -1.29036185367638   -0.31160880957372   -1.61345766837173
H          -1.05576805772862   -1.18585888986815   -1.23749965975527
H          -1.65841259571087    0.18295951263427   -0.84266045242902
O           2.15206084978675   -0.90560874689497   -0.38131462518860
H           1.73211568063990   -0.59236556136467    0.44676544128756
H           1.77040536166055   -1.77571684433181   -0.54172946914468
O           0.90489871131713    0.86196914050400   -1.72249378755186
H          -0.03690307801109    0.36830480386731   -1.83743544300343
H           0.72182446489033    1.49641465384052   -0.91199367328095
H           1.53835197824201    0.15482935284009   -1.32890136560270
