    19
        -40.91793128
S          -1.52827143790605   -0.67027322531409   -0.55267358876634
O          -1.58260796332738   -2.11095700997418   -0.45680056326191
O          -1.47955929815651   -0.03345417391276    0.77347208454650
O          -0.46379538849852   -0.18231980138249   -1.40500633534384
O          -2.88363453401462   -0.18742859092546   -1.20842946061728
H          -3.56121155889668   -0.65523577457679   -0.72780817012560
O           0.45517145649304    2.22162111646737   -0.95917054268724
H           0.01459871730584    1.35538094566252   -1.13068812233175
H           0.85734863943313    2.47861674231539   -1.79105050238092
O           1.02282448979647   -2.17589328251474   -0.19052866904253
H           1.16337358010545   -1.60890973074248   -0.95794014610438
H           0.07533794144249   -2.43164070105753   -0.26352566252360
O           1.93987698625227    1.60767183606776    1.10311685403636
H           1.42306400620291    1.88550369956734    0.29769812503342
H           1.79866254409139    2.29277340116241    1.75959541537540
O           0.73182303609463   -0.53642545321876    1.72638438036371
H          -0.26785019235165   -0.29701832736528    1.42246434078822
H           0.99587196834863   -1.26257108488709    1.04383723455413
H           1.28897699853100    0.31055940511756    1.51705332932915
