    19
        -40.92136407
S           0.44124677376407   -0.13352046224648    1.30764475149000
O           0.73941834756616    0.96924821038926    0.42181207808125
O          -0.39773638173177    0.21479486193296    2.42737189198479
O          -0.08354599366806   -1.28521348932804    0.55292656045193
O           1.82895804866689   -0.62756684188299    1.90010472469251
H           1.60380739549773   -0.98964211077400    2.75246407540683
O           1.71322452664750   -1.39938555271888   -1.43837898846209
H           2.56409024961428   -1.18646673565254   -1.05114687680506
H           1.10104712940219   -1.52934884988269   -0.68963824808298
O          -2.04641321919890    1.48016942417215    0.80777392036202
H          -1.56751588818814    1.03501743532831    1.54339910169152
H          -1.52554585599408    2.26205168528671    0.60422137192456
O           0.23589316056233    0.70556377573154   -2.13563151221635
H           0.54243840877465    1.06346228291399   -1.27106572064016
H           0.80991739353775   -0.08328087132988   -2.25446754478145
O          -1.75110398737113   -0.27135517095954   -1.02418048781248
H          -0.97792247130071    0.17210526345239   -1.66022735882640
H          -1.18176824871311   -0.86592476044578   -0.41046953719312
H          -2.04848937789619    0.46929189601755   -0.38251219124662
