    19
        -40.92135389
S          -0.97518914450264    0.90143385543186    0.82064361160265
O          -0.24339201431502    1.96331817047038    0.12908752219567
O          -1.98752264218559    0.30309234200648   -0.02166667511761
O          -0.06969988000343   -0.07223146225230    1.41012801242377
O          -1.72023491537800    1.58910619760641    2.02980529234952
H          -2.37599625948316    2.12670005567058    1.59655969228097
O          -0.24309481797891   -2.46490496290061    0.19272001662914
H          -1.05181465035540   -2.90630779431102    0.45755104022019
H          -0.16560655721517   -1.67322547831245    0.76023480284862
O          -0.57475146642160   -0.87143326358049   -1.88954392361783
H          -0.33558427876072   -1.64214308851646   -1.32125025210494
H          -1.27523836883969   -0.41720924921713   -1.36418491883283
O           2.41209336377818   -0.04484772247142    0.49433944445212
H           2.93659790819691    0.58345278250941    0.99412680132631
H           1.55205802615997   -0.12968769641102    0.96531297770828
O           1.18903941400653    0.83408828184637   -1.56599446720097
H           1.83917386293952    0.42808956024820   -0.89615937988069
H           0.47934551072644    0.04664679239240   -1.83322898683968
H           0.60981688963109    1.44606268979134   -0.95848061044722
