    19
        -40.92159000
S           0.64841545789891    0.68327036042016    1.13620297751143
O           1.85980800703016    1.42190163563140    0.90480328542533
O          -0.51130100918755    1.14884729737097    0.39061635675021
O           0.83144549606335   -0.76294862160647    0.95564947551535
O           0.26488644609575    0.88919243424439    2.65991929110066
H           1.10405313102127    0.93225022553727    3.10808911221161
O          -0.26974825457473    0.17187404720699   -2.08028246818789
H           0.71636900610561    0.14716738333770   -2.09895304196903
H          -0.46590745557566    0.80763575679259   -1.36410783271586
O           2.27691830161766    0.11875073733406   -1.38007967189081
H           2.55155712500199   -0.73361072135447   -1.03401680479837
H           2.25737639120106    0.71706796617412   -0.60777038636236
O          -2.65135904520108   -0.34651322535092    0.58989907666710
H          -1.93678207743309    0.32709118231263    0.68123494863809
H          -3.37354962614463    0.08016409952063    0.12439000147742
O          -0.85007643637556   -1.73197627844277   -0.58350985604690
H          -0.64535456847676   -1.03114792420624   -1.36767463354500
H          -0.10820544996132   -1.45617944323424    0.11412864692710
H          -1.69854544909977   -1.38283691169481   -0.14853847670582
