    19
        -40.92136408
S           0.42027155194602    0.49858027117880    1.22357141337908
O          -0.44251044386517    1.17738606861494    0.28294498070582
O          -0.22565489980874    0.12159155922115    2.45624540547804
O           1.10551683131067   -0.63665688974946    0.58103983298639
O           1.57732349766173    1.52000646295167    1.59671903607661
H           1.83079258031188    1.27268211197577    2.48152029019661
O          -0.63172148340103    0.24518470389849   -2.15799743688130
H           0.32842835937191    0.32199926097780   -2.35292994875194
H          -0.73245263690719    0.81134585865977   -1.35870294111014
O           1.96919483261532    0.55128691854549   -1.66618289320563
H           2.23294744005466    1.43989788418065   -1.42132112922686
H           1.82567060228723    0.07192723912672   -0.82841093641950
O          -2.24548921670198   -0.88562708372549    1.09588487686270
H          -1.57460619021402   -0.59378677547483    1.75408340622231
H          -2.67574845724816   -0.07875668765261    0.79931235621745
O          -0.70308216237709   -1.77850118219890   -0.73061587589163
H          -1.44993967557714   -1.56763582672932   -0.06262487690190
H          -0.74321359460887   -0.98870935177252   -1.48809057768881
H           0.13427305532595   -1.50221455209039   -0.20444497202868
