    19
        -40.92218954
S          -1.08029851289165    0.15161555129578    0.38670277221603
O          -0.49992702113483   -1.10847116365310    0.83954077967545
O          -0.46880848996409    1.29454328685405    1.06486590830715
O          -0.98457004669440    0.28047751055197   -1.06377255709170
O          -2.58672537035900    0.16322430737878    0.77866948536273
H          -2.93240846099860   -0.61746370247049    0.29792001454423
O           2.06702486936883   -1.02036628381617    1.19590386738832
H           2.22074100742423   -1.22973852265962    2.11971460530992
H           1.09565780247363   -1.16706105759818    1.03827231264174
O           1.27888457140560    1.23514053819542   -1.89386779906038
H           0.40303250472274    0.81535552368194   -1.67758308397551
H           1.07530294285482    2.04494738991021   -2.36687401496131
O          -2.53435894318569   -1.95591806310672   -0.78054447962883
H          -2.11781329974010   -1.36877233911604   -1.42523290071141
H          -1.81010861760318   -2.25378319442265   -0.21439665445790
O           1.93941703869983    1.41293615980920    0.53589461265677
H           0.92511783183064    1.48406208708051    0.84682701582189
H           2.17163836192038    0.44290499484549    0.81208518107556
H           1.83820183186686    1.39636698724499   -0.49412506510961
