    19
        -40.92025499
S          -0.35862519049391   -0.37034754329909    0.74837342544027
O           0.09038137334313   -1.60542074194346    0.10880790179017
O           0.63406956462517    0.68308927611270    0.60386640528204
O          -1.65671966001269    0.07466909606886    0.23134471855810
O          -0.58028671221724   -0.65926153200097    2.25995019349428
H           0.10513033632085   -1.32028240542089    2.50911142964639
O           1.17811792525345   -2.60986751500367    2.27482406921174
H           0.83032668777080   -3.48022479530537    2.48297697864921
H           0.97567780423478   -2.44562121885185    1.33178049385185
O           0.79181906869574   -0.35449803309470   -2.08975765277065
H           0.55765231422498   -0.97713773972893   -1.36253630218784
H           1.52869449217214    0.16085065766416   -1.74721446657012
O           0.03219669260399    2.90141180715181   -0.59535503747784
H          -0.46742718077316    3.45207429407384    0.01054253466504
H           0.37811881904481    2.14063406994451   -0.05790842218500
O          -1.23443387803686    1.16466406573394   -1.93052927950607
H          -0.79019027500160    2.01068050582420   -1.54626554638195
H          -0.44429635581595    0.55825460221295   -2.19990897291876
H          -1.57020580593181    0.67633315985846   -1.03210246061165
