    19
        -40.92007410
S           0.70679070441967   -0.49355937995241    1.09778442308702
O           0.84248151511647   -1.02193105271087   -0.27467890042520
O           1.80962235887321    0.37753302913203    1.43700934341117
O          -0.60148386848604    0.06806239681059    1.30814420067252
O           0.81882623322558   -1.76427529826818    2.03933469726198
H           1.75778740715859   -1.88669686490643    2.14301572328819
O          -2.13285767227890    0.52718233301958   -0.77556591714666
H          -1.78141151889652    0.57714591566346    0.14149833967311
H          -2.23548329899130   -0.44394805718662   -0.90822282366927
O          -1.62403575101858   -2.07132101450131   -0.53388843969365
H          -0.67423760607685   -1.85374978205010   -0.48741907498489
H          -1.87636894494137   -2.33182655786544    0.35413244255038
O           1.25889622212453    2.41264755930888   -0.09603402049684
H           1.47245645697584    1.72298108787768    0.58038950002646
H           2.08243326656067    2.86537345596439   -0.29092798094786
O           0.10793485797064    0.86408745772275   -1.76064001237349
H           0.49045795851602    0.02543691818685   -1.30567209656540
H          -0.95011292574500    0.80688552752179   -1.44736198887558
H           0.52830462549290    1.61997231623549   -1.22089742479804
