    19
        -40.92218954
S          -0.77999353446072   -0.84966267031505    0.09887323969921
O          -0.54463221953269   -0.63565835365720    1.52679027288363
O          -1.33378722540169    0.34324756445510   -0.53354388938866
O           0.43539677552584   -1.28600689566230   -0.58098818033134
O          -1.83347090932269   -1.99071982499156   -0.00607094438530
H          -1.94351324998034   -2.08327004544107   -0.97522393345739
O          -0.28447803808714    2.56421683307361    0.29636089452177
H          -0.70883078891359    1.76702838872150   -0.12141353011039
H          -1.00113725250839    3.07982773826402    0.67240602163867
O          -1.44132575488018   -1.49194565882054   -2.55984191168261
H          -1.63190376302531   -0.57380619391293   -2.32618505010031
H          -0.50444661342676   -1.60943662553900   -2.35371751278284
O           2.58620503043775   -0.08192205602229    0.22414599578623
H           3.16734117027996   -0.76406789189469    0.56749153430422
H           1.81496209612978   -0.55848145945300   -0.18591895992511
O           1.11641511051931    1.16014294900721    1.85786671498669
H           0.39629485178478    0.37792444429371    1.86434054042843
H           1.85237226836578    0.75694259851038    1.25207790870412
H           0.63853204649954    1.87564716938488    1.28255078921793
