    19
        -40.91941568
S           0.61086381406826    1.16917668802971   -0.94034363674854
O          -0.82811598911469    1.16852947652379   -1.13174603955496
O           0.96164747469487    1.66874903680678    0.39459426363933
O           1.22005075546109   -0.11135637212690   -1.22181650216637
O           1.22075735378126    2.19988049022631   -1.96290466018148
H           0.77291791204147    3.01071499591352   -1.74289948987853
O          -1.29852030609366   -1.57781197519147   -1.08088051072734
H          -0.48378954437240   -2.08222060261707   -1.12682242033479
H          -1.08354478541499   -0.69282251468670   -1.41287217339587
O           1.34477241494352   -1.73122645812256    0.79996133049452
H           2.26212592406187   -1.88787441099430    1.03130118099277
H           1.35463039699344   -1.18224050358489   -0.02682842239231
O          -2.14141970009124    0.02492607623608    0.88904896883489
H          -2.14625046919997   -0.81963863435891    0.39759935587881
H          -1.89003684466780    0.67122169471533    0.19560471391637
O           0.05723193595963    0.07387218309134    2.06029846680160
H          -0.94652241864937    0.01710819477587    1.69195423601870
H           0.54077611758196   -0.75725663091076    1.71805593778054
H           0.47242593798946    0.83826924620060    1.46869540101195
