    19
        -40.91317509
S          -1.25093524112507   -0.74872504887456   -1.40373740480216
O          -2.00460989485791   -1.06985107892681   -0.17612350962989
O          -1.66713317925963    0.49726530255827   -1.98616340244668
O           0.18263822200004   -0.82372071318144   -1.15348621053113
O          -1.58287402842504   -1.90718807826078   -2.42544249562361
H          -2.47173082423219   -1.72594229123141   -2.71941847421462
O           2.54554196093303    1.17474130385462    1.12662653692540
H           2.76567918648970    1.80400108562372    1.81496606657709
H           1.87258784851807    1.58612719864462    0.56655229424249
O           1.30735486094926   -1.23645057205472    1.24655132820950
H           1.97665811995925   -0.52357227081008    1.25923259085743
H           1.07606537175538   -1.35966304481678    0.30381208944941
O           0.12806622879999    1.63318497918080   -0.24048645621093
H          -0.54752193008969    2.04101261357532   -0.79379582931523
H           0.31379615829487    0.78666801682212   -0.70942063396714
O          -0.79249969132286    0.05345332713980    1.63024218018357
H          -1.42908441911933   -0.48124132540897    0.92061701819264
H           0.08902209329226   -0.55558669508199    1.63898921962318
H          -0.51102083255754    0.85548728129810    1.10048508257921
