    19
        -40.92218952
S          -0.37736236871682    0.76426589884002    0.78325925853089
O           1.02951812099104    0.42305822366893    0.96860224629584
O          -0.57256317162674    1.59299288549651   -0.40637443424929
O          -1.20510912185790   -0.43666621889961    0.73685229597228
O          -0.83409747593602    1.62431675872243    1.99755903422874
H          -0.67845400052887    1.01785121443478    2.75123710859372
O          -1.34365655614751   -1.53134650697524   -1.60946371860251
H          -1.30972311978899   -1.21647407131288   -0.66611694990010
H          -2.27061965846787   -1.52649288415394   -1.85773449007715
O          -0.11258779560006   -0.57890606390742    3.24187264961421
H           0.71961638561856   -0.47661185486981    2.76110166571568
H          -0.70175350178135   -1.02837469525801    2.62165153177105
O           2.28266882047055   -0.13308785818235   -1.23208829411469
H           2.99505718711311    0.50538484343457   -1.30820755454295
H           1.87819246661098    0.01160021935111   -0.33453360070431
O           0.11572405993696    0.35765813534753   -2.42982861732288
H          -0.21411133789007    1.00205599364069   -1.65169766191513
H           1.06633794365438    0.11017690752189   -2.10328495860525
H          -0.46707686605275   -0.48140092689029   -2.26280553069340
