    19
        -40.92267739
S           0.36667790385919    0.88576750515801   -0.46287739949715
O           0.24871770695062    1.57743455644753    0.81219111089343
O           1.46952577037216   -0.04740694401394   -0.49935333925825
O          -0.90958128998731    0.19738681349047   -0.77961702443216
O           0.58268133164253    1.93516368934688   -1.58864827259653
H          -0.18143509941866    2.54273526638052   -1.47347748261042
O          -1.61883738390411    2.93766625419053   -0.57394504660140
H          -1.12826915305158    2.73355010948984    0.23827847211592
H          -2.15209621523626    2.15695152973273   -0.75539106835958
O           1.14211769443987   -2.62320292094154   -0.75350016382983
H           1.43829243013293   -1.68046645606200   -0.71180989510800
H           1.05871226419188   -2.83887943905842   -1.68432667346207
O           0.46053274646025   -0.58911199230419    2.27214801270962
H           1.38769754717729   -0.82008685980734    2.16758544560744
H           0.37041190401078    0.31253496263432    1.88095737382998
O          -0.90240472111352   -1.86600962254035    0.54996689378955
H          -0.16098467500227   -2.36702893855146    0.04948993310361
H          -0.43563632612462   -1.46685387714562    1.37782217830199
H          -1.03612243499593   -0.98014362649721   -0.06549307480219
