    19
        -40.92025497
S          -0.69496813663458    0.09360617182675    0.58035495759039
O           0.65403796004929   -0.40542920854953    0.79769422635863
O          -0.67185711744720    1.46473593502177    0.07485418601727
O          -1.43725816810100   -0.80645260988768   -0.30808922558637
O          -1.46543529680374    0.08694299838353    1.93089500573259
H          -1.25098463141390    0.94387364765239    2.36480738301769
O           1.49507976122314   -2.51553487416971   -0.45242512035084
H           1.13697727917951   -3.29241063491275   -0.01862035870922
H           1.28675433367982   -1.74590359037213    0.14033365992821
O          -0.83989950039762    2.58628433478095    2.44143053306663
H          -0.65786540034150    2.45869959025800    1.48865593777529
H          -1.57940644301335    3.19573963689386    2.50038136366312
O           1.13649837559165    0.89344693332942   -1.74022589127226
H           1.88476835965058    0.71175963906004   -1.16314103062321
H           0.44370462274413    1.26823930115667   -1.14773854149317
O           0.05418718771677   -1.35882433271477   -2.18159287980643
H          -0.71652716855424   -1.16700072573862   -1.45491389705222
H           0.53223910448537   -0.44473974687171   -2.20634703587508
H           0.68995486838257   -1.96703246514734   -1.64631328237730
