    19
        -40.91241714
S           0.29909505698788   -0.90518467460399   -1.12578031043839
O          -0.02159201364994   -1.50855838408883    0.16842958342830
O          -0.85125145283068   -0.23453021132159   -1.70729427910359
O           1.46988188533813   -0.05916274633601   -1.04449008695096
O           0.67398302214394   -2.10290243133554   -2.08344728881177
H          -0.11468567243353   -2.63738004565159   -2.12244340699041
O          -0.44170560423395    1.92600372166675   -0.22681954423278
H          -0.68711325094367    1.25083441762849   -0.89563806873312
H           0.45392045489868    2.19337179610470   -0.45216077374523
O           2.31495275160546    0.37776652000594    1.37499381795766
H           2.79832604201294   -0.39449916905539    1.67529607208933
H           2.13655220297260    0.23473726775901    0.40916881878990
O          -2.63717421762918   -0.03340831528904    0.35987952538902
H          -2.14081262682099   -0.25422271415560   -0.44140443173634
H          -3.14601384686914    0.75283816770278    0.15444727674025
O          -0.17995348177452    0.36849101545713    1.78554109547298
H           0.84856841812563    0.44049537519813    1.82523564576571
H          -0.46703751203266    1.09337067041863    1.11969583701319
H          -0.30794015483053   -0.50806026010560    1.22679053811352
