    19
        -40.91892647
S          -1.32455498637249    0.40507904164291   -0.36837402308595
O          -0.46679320586185   -0.23397670563013   -1.33533721834159
O          -2.23565433867594   -0.48735832058344    0.31528533159924
O          -0.53735283230959    1.20423601319390    0.58944362148690
O          -2.20685307213109    1.45076515453913   -1.16126089553944
H          -2.92520604059260    1.65401076725193   -0.56933527644219
O           1.31213801169352    1.79622534725330   -1.45815458228403
H           1.01508965317017    2.27060507365400   -0.67606189552306
H           0.56757847995492    1.21753564008193   -1.69249175394793
O           2.19847111547453   -0.64150787570366   -0.81237908847147
H           2.24156424532991    0.29762123639252   -1.10236729372041
H           1.39610696320362   -0.97046497583202   -1.24864842717415
O          -0.63021664891998   -2.16441404897684    1.48153098284468
H          -1.04945761115936   -2.45479542041803    2.29452729433552
H          -1.30809726356656   -1.63046992705167    0.99326170045608
O           1.17185737892989   -0.37314741445871    1.45204115038529
H           1.72619865245153   -0.53575464974408    0.55558463617201
H           0.49353173418220    0.38319731750839    1.17974089963972
H           0.56164975519951   -1.18738625311519    1.56299482760887
