    19
        -40.92135395
S           1.07074366389434   -0.51979012887731   -1.00933971336857
O          -0.25012392650514   -1.10581843585940   -0.84435251881579
O           1.03483233829100    0.83805361379508   -1.50623786776891
O           1.86507879972700   -0.63554437864368    0.21452297151276
O           1.80258531697177   -1.39711816851653   -2.09792048498219
H           2.61133687479372   -0.91735937891131   -2.24791592205577
O          -2.18373763664873    0.76431182208908   -0.90839410566043
H          -2.30952456084747    1.06891093862793   -1.80872545878442
H          -1.57672463336025    0.00047453952407   -0.96110995142882
O          -0.29448071707870    2.10749054440649    0.36212282492377
H          -1.17350382998736    1.78232633149994    0.05291747707091
H           0.30840554765138    1.85100383897875   -0.37499067183419
O          -1.03641977005706   -1.50783143775889    1.64927399933067
H          -0.74214305949811   -2.36991108373363    1.94908933087202
H          -0.85581667950848   -1.47015776157752    0.68252610830521
O           0.54191543713282    0.46408523978006    2.01363527746559
H           1.23019150577731    0.03165215631554    1.36589427548828
H           0.13379743716897    1.27042345514957    1.40113853471656
H          -0.17641210794896   -0.25520169626422    2.06786589503863
