    19
        -40.91793140
S          -0.26780922378232   -1.73598797109230    0.03855456039794
O           0.90341784922477   -2.49844843168705   -0.32819240200829
O          -0.08260988424917   -1.02566910682766    1.31427800629323
O          -0.72525693071325   -0.83462735941440   -0.99882869721127
O          -1.44339337781560   -2.76344231040350    0.28890020447575
H          -1.05834774212822   -3.43591020039208    0.84430436850886
O           1.97200896491236   -0.33385782360665   -1.34710279726639
H           1.17765285460253   -0.12687918289915   -1.85364510789874
H           1.81954687152921   -1.25914835254577   -1.04905548673815
O          -0.05578210768323    2.69684471664242    0.53308164702396
H          -0.31411452599538    3.10013026944004    1.36434471783773
H          -0.85945861407899    2.21101446051705    0.20018198235920
O          -2.09227490439921    1.27058380870467   -0.27600228261194
H          -2.58085206635579    1.51717335221462   -1.06360494835235
H          -1.64269995706335    0.41978195882805   -0.49465095910029
O           1.55121600981830    0.76655999752779    0.90210042622605
H           0.96243022666563    1.60427350224622    0.74908861390099
H           0.86811638957059   -0.00508402502701    1.19667561352933
H           1.86821015793873    0.43269268778567   -0.02042746935163
