    19
        -40.92135398
S          -0.44593184895597    0.20697231271198    1.48181552090260
O          -1.13510648887411    1.35689461640857    0.89516619170677
O          -1.17167418632725   -1.02626362524007    1.27020684159996
O           0.94049446291557    0.13858562454352    1.04758437774562
O          -0.40152280179744    0.46196018256930    3.03850919139545
H          -1.31641960191121    0.38715454220282    3.29169258552001
O           1.38526034536795   -1.99036525728478   -0.53607216947698
H           1.40177008452499   -2.79013435148341   -0.00752025373556
H           1.35735167619137   -1.24586473018226    0.09622234008778
O          -1.05036367671550   -1.33910645337994   -1.32778262638248
H          -0.12329327347799   -1.67769767397079   -1.31289201693544
H          -1.30485683900794   -1.34771792375905   -0.37473511148254
O           1.55418881013319    1.56621339976501   -1.09351913008251
H           1.79736009963369    2.45650322277622   -0.83305917361420
H           1.48533808868183    1.04020348319564   -0.26451815932385
O          -0.91221688556713    1.11939101234654   -1.57375451191741
H          -1.00221559903940    0.03021597834593   -1.60857376215026
H          -1.14073074295345    1.32046683728406   -0.58077200255674
H           0.08256836718341    1.33258882316839   -1.60799812129821
