    19
        -40.92120614
S           0.43167287837908   -1.12234421934496   -0.67574627514809
O          -0.41961333010470   -1.79809898654295   -1.61587414891139
O           0.89410968489667    0.18335397906839   -1.14736296294844
O          -0.08650792333446   -1.03552709688968    0.67987182581286
O           1.75462801972336   -2.00670614124593   -0.53804359839505
H           1.84434220661526   -2.42741657124267   -1.38790833586135
O           1.77279405742423    0.26649209219743    1.98631377197468
H           1.10417282432921   -0.37013729829751    1.64298833598002
H           2.62587907825092   -0.05700453961142    1.69090258934355
O           0.57059345301969    1.98605173140236    0.51540569603155
H           0.73331265425501    1.33736280466118   -0.29793226795131
H           1.11625546544731    1.52756645721536    1.23694400103564
O          -2.20230707073431    0.18396956867616   -1.50091863391216
H          -1.55090138293323   -0.53458468524240   -1.61701179907939
H          -3.01649158875654   -0.12317536328375   -1.90514874884554
O          -1.70914837701615    1.07406573131744    0.95910358786791
H          -1.33513557204018    0.19578833603058    1.16165385048500
H          -0.44687581379490    1.76591775690150    0.75383373058702
H          -2.08077926354700    0.95442645426366    0.05892939189201
