    19
        -40.91039670
S          -1.71255245754760   -0.47042674449207   -0.76512701403689
O          -1.66055369265925    0.84225082173320   -1.37648090871145
O          -0.66289772462085   -1.34884319651563   -1.32542126897194
O          -1.67882113078344   -0.46496720810813    0.67508842897529
O          -3.07814695594529   -1.12696122978265   -1.19837836073231
H          -3.11452861412929   -0.96614338508711   -2.13677245850793
O           2.05293380760274    1.36493231682680    1.68592837032531
H           1.50512564158636    0.75323102918379    2.18663535020476
H           1.46195698098423    1.85870920578672    1.10944693186164
O           0.69366307129591    1.74504198702829   -0.80852803744799
H           0.99287709493998    2.29317045768232   -1.53656472258703
H          -0.24703502045708    1.49705570477332   -1.00935601138789
O           0.52015514755603   -1.04544160164782    1.92204246463360
H          -0.37287879992216   -0.80698162284419    1.56287157692094
H           0.43939621816118   -1.92759041875989    2.28868720448035
O           1.50541208143592   -0.66388903932581   -0.41861473106898
H           1.34526536823838   -0.82833510456044    0.57242069463026
H           0.59323184372071   -1.04494545494404   -0.88645587026752
H           1.41739715063799    0.34013348296572   -0.54142164833823
