    19
        -40.92136402
S          -0.36291427551995    0.91284196507096    0.97860219451991
O          -0.76667301579544    1.09258410138757   -0.42722420063483
O          -1.49110212001006    0.68344764852554    1.84666890093900
O           0.68489785385457   -0.07671447754352    1.09000888350395
O           0.27735260023419    2.30233261902962    1.40337010657255
H          -0.45541615541520    2.79909189655199    1.75628804237845
O           1.51252806888617   -1.29199967825029   -1.07919065885990
H           1.42899621839721   -0.99241890679173   -0.14510170998246
H           1.77440205381144   -0.46697797959546   -1.54433481354834
O          -1.56387611884478   -1.84093198810644    1.09398906542038
H          -1.70415710483396   -0.93786295189175    1.45916644554352
H          -0.79277318178396   -2.18267664269727    1.55516133421686
O           1.64607109289060    1.32194501586537   -1.58193040133478
H           2.19263772930467    1.82576809801506   -0.97653122686892
H           0.73350781224660    1.39227700592212   -1.24366787476368
O          -0.95410204704271   -1.24736051813832   -1.31166369685462
H           0.12947723874072   -1.39792281270180   -1.33147018960704
H          -1.28060741952635   -1.65415688433287   -0.43039412798178
H          -1.00824921932040   -0.24126553018930   -1.11174604289647
