    19
        -40.92071424
S           0.93918361619526    0.23106875587848   -1.12322229112664
O           1.28281136402283    0.33878245979167    0.30854808829220
O           1.53676705177503   -0.93710402124204   -1.72790764857913
O          -0.49021327686783    0.32572589599842   -1.30983057091760
O           1.59511994895173    1.49082935231597   -1.81539477295843
H           2.47645146541031    1.19959811429217   -2.03139609335587
O          -0.13831858676531    2.18705457144862    1.63475525641200
H           0.30902587282186    2.40438911744842    2.45391673522303
H           0.48178566095098    1.63862481421307    1.11418626451943
O          -2.02116569678571    0.48796832434375    0.81902801553925
H          -1.60663485796879    1.26012743136193    1.25888611411440
H          -1.68547237258990    0.54154716637157   -0.10563074779749
O          -0.39454383812873   -2.49859787469494   -0.90094885941855
H          -1.12830707543567   -2.14937773157684   -1.41531657683657
H           0.41062223558599   -2.07957850498887   -1.28727320830698
O          -0.35996771491592   -1.27500685319002    1.32533828819571
H           0.42747425090144   -0.67408962065908    1.05749694813460
H          -1.19964174000017   -0.57310625543663    1.21985839273804
H          -0.43497629715179   -1.91885516167315    0.52490666612757
