    19
        -40.91873542
S          -1.45151604402673   -0.70830404483677   -0.56677640328106
O          -0.65594312678285    0.08469670199953   -1.48757208733586
O          -0.70077444214238   -1.85216084534951   -0.06809139360856
O          -2.00887072966878    0.10935409490889    0.50336757126278
O          -2.68125759246958   -1.29369328466101   -1.35872587733851
H          -2.29965964505109   -2.01962873958011   -1.84255656776996
O           0.70900561032701    2.22925130127982   -0.63139715265232
H           0.03074613504707    1.77710481940823   -1.16979069820161
H           1.50462796001900    1.66867900231803   -0.78224601423972
O           1.07090722731098   -0.95003503904657    1.54995110616590
H           1.09922734455140   -1.49202265469500    2.34065691427459
H           0.40719753302143   -1.38184273230269    0.93737462512432
O           2.05310150374313   -0.02387168827253   -0.98297656322617
H           1.17601200920250   -0.23489070961290   -1.34511335108841
H           2.12402769938425   -0.51322529522485   -0.15659932161328
O          -0.11502981838963    1.33225413320986    1.53584515981659
H           0.46975547838381    0.51651287413518    1.67662706594243
H           0.27707729123039    1.84197867939689    0.66261572822534
H          -1.00863438370642    0.90984343695868    1.18540726956196
