    19
        -40.91103771
S          -0.25954634209197    0.60182207227120   -1.38242040492413
O          -0.43976511228928    1.35582235943119   -0.12358265509450
O           1.06862994696897    0.82781707467934   -1.91622594738166
O          -0.59015308863101   -0.79029918399072   -1.21333668610386
O          -1.29270522159146    1.21553994715601   -2.39230380744549
H          -1.03013576339140    2.12784648616842   -2.47230478277357
O          -2.71086268861959    0.35077573686932    1.19691880798446
H          -2.38331397395687   -0.54141399786040    1.33417443977104
H          -2.03497134844670    0.81735764536110    0.68950219255086
O          -0.61093872722345   -1.87784464844060    1.12450189008644
H          -0.71788191716604   -1.55472319829715    0.18990176896483
H          -0.24782120590920   -2.76375314901648    1.06556033613705
O           2.62164081317924   -0.25215558598943   -0.16359525899435
H           2.08794992025561    0.09847251832605   -0.92884108061522
H           3.44282994488615    0.24510927455002   -0.16091264797845
O           0.85189171390528    0.13995310814933    1.59223950540549
H           1.67747842323096   -0.05265684863342    1.00000136685980
H           0.27523042229884    0.77638281499108    0.96468263822433
H           0.29244422459696   -0.72405242573493    1.59604032532797
