    19
        -40.92136385
S          -1.10361117301565   -0.39194018459288    0.74017710749381
O          -1.30157395255588   -1.76396594428352    1.13673525853888
O           0.09997700824510    0.21186101562596    1.26604694746848
O          -1.18393837663790   -0.21470235881359   -0.72056079049868
O          -2.32201094832655    0.44268388567174    1.32338186739079
H          -3.03744159925587   -0.18544190040034    1.36630778116802
O           1.78028582930892    1.33926883155071   -0.39894949973766
H           1.34267956226950    1.03041382407461    0.42709150529427
H           1.12503014439594    1.97636001094447   -0.76017115721757
O          -0.61250795039900    2.40258751382880   -0.89543953161578
H          -1.03056000982392    2.82309837617836   -0.14195769726325
H          -0.96544880823549    1.49348731397521   -0.92684094638958
O           1.19612060048806   -2.31229808222612    0.49813882035633
H           0.24602183514479   -2.29771380138083    0.75399434681290
H           1.65936939653224   -1.88397987613592    1.22338028099905
O           1.12521772793559   -0.76564692661074   -1.53046216662031
H           0.12224451380626   -0.58651196633887   -1.39962803233276
H           1.55518736442028    0.16259878025654   -1.14196660039258
H           1.30495884573061   -1.48015852135953   -0.81927749350927
