    19
        -40.92120612
S           0.38634064148108    0.64631311935438    1.15558130672781
O           0.90561951307792    1.98571631618429    1.11921982955836
O          -1.04388025611422    0.57067027530668    0.85619834447384
O           1.13535359855815   -0.33036453872733    0.38149075159677
O           0.52182427058268    0.14332184224170    2.66544265768414
H           0.44504575425683    0.93860496924635    3.18400186657461
O           0.23751549558064    2.23369219909972   -1.45195523856249
H           0.69375838669181    3.00063193103255   -1.80475512774920
H           0.44422743567933    2.20724647570213   -0.49762057869351
O          -1.59202096286983   -1.13297540027778   -0.85163691115365
H          -1.17982031510636   -1.90097075209803   -0.33319625275286
H          -1.50810011801831   -0.35283517198787   -0.14969019590765
O          -0.18156575685824   -2.56644376182683    0.73627993108719
H           0.47655506467184   -1.83595915207077    0.67747092684972
H          -0.44835299036133   -2.61198505814514    1.65627835533038
O           0.35977835526997   -0.32430916434230   -2.17849029690878
H           0.95529881751601   -0.47204783785270   -1.41941494514165
H          -0.84921743046408   -0.84817907681742   -1.56439788553771
H           0.24164048641330    0.64987276600401   -2.18080651749227
