    19
        -40.92158993
S          -0.62058494062738   -1.10028004298258   -0.76291951819441
O          -1.19948800249225   -2.20423772826573   -0.04680760896394
O          -1.36181483570418    0.15090893193718   -0.55623133482161
O           0.80225211437159   -0.89531581435007   -0.53736865762242
O          -0.74630564544512   -1.43340845850676   -2.30720333916332
H          -1.57417494592303   -1.89855884500972   -2.37942798659705
O          -1.33118929460845   -0.75356380235037    2.18269439379696
H          -2.06297256268047   -0.17447159397936    1.95715530010126
H          -1.31490909095802   -1.43411118032046    1.48167199080766
O           1.02760927144675    0.37353285155404    1.79938334801749
H           0.21412446045462   -0.00086957312111    2.21312527759349
H           1.22583334199533   -0.25762041256946    1.07973564207072
O           1.81182971766391    1.26634801671540   -1.61594834734151
H           1.49838223585215    0.35736642502868   -1.39643198485715
H           2.76020953786811    1.27245244798641   -1.47147562633686
O           0.11860085643577    2.00579000586711    0.15234037352593
H          -0.60958288310324    1.31861552716898   -0.18064614355878
H           0.54198021424192    1.45589168857602    0.96805110690741
H           0.82020047128087    1.95153154661829   -0.57969687535388
