    19
        -40.91899930
S          -0.04359322500511    1.00397446568888   -0.68916349284404
O           1.37711708002297    0.99287380856474   -0.95244183017598
O          -0.77571528582466    0.01644610773426   -1.45399611591142
O          -0.30253852186339    0.80074476827306    0.76787324046903
O          -0.57754534403293    2.42223438802059   -1.02641385237146
H          -1.48164042236476    2.42411132756036   -0.64797425700608
O          -2.64188293447356    2.02308229808161    0.56030573542544
H          -1.93655380842903    1.42522156036270    0.87099467531818
H          -2.77936197004743    2.67376229407961    1.25267695687457
O           2.72305510586648   -0.96191421247907    0.05386409071284
H           3.48964603866829   -0.58016474713047    0.48642728489819
H           2.29002031375772   -0.21479461998235   -0.44385970894291
O          -0.68201374597795   -2.41549805988417   -0.60846807637258
H          -0.15558253127657   -2.88621969098010   -1.25865879106508
H          -0.85250682748203   -1.51293168860792   -0.99705833730509
O           0.58917152922867   -1.43250579653008    1.32825826157050
H           0.04738050908758   -1.98239299951091    0.62929519205829
H           1.53282494627339   -1.34220212625432    0.92275040456607
H           0.17971910387904   -0.45382707700622    1.20558861010220
