    19
        -40.92174070
S          -0.17589414767601    0.86746910420156    0.13985662570181
O          -1.55517809548149    0.44338740283143    0.25667650069920
O           0.68610022389941    0.12499267840221    1.14435312023318
O           0.37369631959160    0.75237908471740   -1.17904768889764
O          -0.07254732910488    2.33873195339242    0.59697969651410
H          -0.69031940396437    2.42571967663777    1.36851137742837
O          -1.07456410849455   -1.82299854370867   -1.14298337517694
H          -0.79928201399506   -1.44980019982061   -1.98448588057018
H          -1.46610969925543   -1.08812989755015   -0.64255392864977
O           2.45448179161767   -0.85831695253907   -1.74452947311380
H           3.27092253265274   -0.36879986384386   -1.63164107705654
H           1.73110562963380   -0.20481890663401   -1.69665462213290
O          -2.01618392526210    2.06730716457602    2.29618343763523
H          -2.78947610749202    2.62347170580549    2.17203648385931
H          -2.13312767156780    1.28697228655266    1.72312506970942
O           1.18350614813381   -2.11384470741233    0.22522125420944
H           0.93123089188728   -0.88498871787191    0.82502534860307
H           0.32747682505298   -2.27548462554970   -0.23713992057484
H           1.81416214982314   -1.86324863218379   -0.48893295841853
