    19
        -40.92174059
S          -0.35730816541288   -0.80358570161727   -0.16546822604255
O           0.94270290647115   -1.13650631994798   -0.70866110960991
O          -0.22072432111386   -0.34829748350502    1.27572288352478
O          -1.09448506055199    0.15858991157413   -0.93097481095875
O          -1.19181538853793   -2.09808695732296   -0.05550365080016
H          -0.55715197906124   -2.80591566196000    0.22813258576926
O           1.54180635395600    1.47288247330959   -1.10975265415031
H           1.53630546380436    0.50249333394675   -1.06631844172151
H           0.85000671044520    1.71096080502585   -1.73261164903727
O          -1.80236281849226    2.55964690281975    0.05736971375832
H          -1.65916842657583    1.72500975568937   -0.42797055431143
H          -2.66282964253777    2.48784532701377    0.47365477534242
O           0.91400040228062   -3.55836940509190    0.36003043319345
H           1.29970250302497   -2.73842777852330   -0.00027583923356
H           1.09824873395520   -4.25607924232237   -0.27390633293771
O           0.49971048361225    2.01479057711375    1.27217084944913
H           1.07857493896831    1.98929484805959    0.47400101857474
H          -0.33381802431805    2.44219358412296    0.96729267525259
H           0.11860531008328    0.68156100161158    1.36306834393781
