    19
        -40.92120600
S           0.28125732558897    1.15668632511404   -0.69410399190533
O           1.40949955190408    1.24103471416651   -1.58009636568966
O          -0.78913397121125    0.29595219425178   -1.19820191197536
O           0.60050653443984    0.83917205184993    0.68841694954970
O          -0.35824871700721    2.61903176727542   -0.62710840954569
H          -0.15180361702942    3.00376316520240   -1.47363416444043
O          -1.73341629887338    0.79316216230696    1.87549384771262
H          -2.25642691411506    1.51865291460280    1.52928276041300
H          -0.80905862675812    0.95447588098910    1.57596275658871
O          -1.58472422259756   -1.34571767384880    0.47236039655496
H          -1.32665692327031   -0.73591621245374   -0.34633325460131
H          -1.82966740820452   -0.64397719792948    1.16243717449125
O           1.82616599527125   -1.38699240684495   -1.37127649873571
H           1.67389132612142   -0.43410911254207   -1.52230216682042
H           2.70010929145181   -1.57798290869693   -1.71828784555071
O           0.79892867772976   -1.80394186537800    1.04980345921569
H           0.95158727073988   -0.85782397181447    1.23433355393992
H          -0.62444119953220   -1.70625846524079    0.76999957782693
H           1.22163192535009   -1.92921136103096    0.17325412298973
