    19
        -40.92136388
S          -0.93633668217178    0.01167295960769    1.02281562137818
O          -1.42917959132224    1.24593365913393    1.58203520840576
O          -1.33863668202396   -0.16444514635022   -0.38398711391860
O           0.48699065053747   -0.18612378347446    1.17917135401007
O          -1.64813512886268   -1.17225611318204    1.80540366712039
H          -2.48524302655696   -0.80471171493139    2.07455721732718
O          -0.06698872375454   -2.46020440047627   -0.95091705757406
H          -0.67367030988396   -1.71007464805979   -0.80457600771712
H          -0.12861042061985   -3.00801781284011   -0.16655983089569
O           0.52756070196869    2.56603583207830    0.41077764423606
H           1.27135222773091    2.29498689337704    0.95616134966738
H          -0.27224132326091    2.24787796483424    0.88792289513739
O           1.93368763295616   -0.69868856720127   -0.94537600211778
H           1.65415380042689   -0.55693676299461   -0.01215624728437
H           1.43323913677418   -1.50594135687232   -1.19690395541077
O           0.39750707211184    1.10357965530368   -1.67596764592569
H           1.17464077848152    0.35559947977628   -1.49555833240453
H          -0.43269875584909    0.61298059682968   -1.32145824736579
H           0.53260862332240    1.82873328544239   -0.96538449666976
