    19
        -40.91908983
S          -0.86902666518326   -0.06707228530677   -0.83282234298037
O          -0.55371477064584   -1.46476847910870   -0.60778405056839
O          -0.79456073731815    0.66901191865429    0.46450116501329
O          -0.02356573203327    0.55702585455426   -1.82065230088173
O          -2.34154302033063    0.05333740392690   -1.31105756159526
H          -2.86506375298529   -0.20007651582347   -0.52260869881475
O          -3.18423880733929   -0.20169245392899    1.17675855917790
H          -2.26838810004049    0.13409386959707    1.21517659575131
H          -3.75248933955924    0.51103857523822    1.47806900437463
O           1.71768581831304   -1.78607011096223    0.53650021830914
H           0.86443123721749   -1.75986586570011    0.01324748587603
H           1.59118881569327   -2.45889000091212    1.20881107963684
O           2.27827655095171    1.53814006822798   -1.15183482969441
H           1.39112836773709    1.29024186975601   -1.52298620314450
H           2.92036645561764    1.00681350589727   -1.62843065927345
O           1.58902756097733    0.66635594530534    1.11329757793221
H           1.75943882057558   -0.34790639697942    0.99029830466827
H           1.99885582450838    1.11324468141536    0.27141108912347
H           0.54219148383085    0.74703842616488    0.93010557707203
