    19
        -40.91892670
S           0.17079242018954   -0.71670427974467    1.23068510192512
O           1.06270962823702    0.36377393426011    0.88975596386884
O          -0.93514625864955   -0.34091492389824    2.08492112236181
O          -0.30014265341717   -1.41498529179432    0.01985583114656
O           1.02774068503499   -1.78360034622237    2.02329002518213
H           0.38196004203594   -2.33600332003951    2.45400477851972
O           2.18620242046075   -0.90170733621398   -1.21442373901877
H           2.06042985651529   -0.55623639684923   -0.31482590438242
H           1.54160527353747   -1.61079685462222   -1.29562387058478
O          -2.16650240837061    1.45784071001075    0.67176110279009
H          -1.70282434567600    0.85773509993088    1.31047989128329
H          -3.10087619887142    1.40983370076703    0.88559302050333
O           1.04353317936549    1.47810890030941   -1.62456628714011
H           1.60669970550296    0.69134078514894   -1.80431138941129
H           1.17170547220016    1.62942347902015   -0.67463956309844
O          -1.19997224315709    0.39185805828534   -1.42244668361288
H          -1.68372133453527    0.92104593216888   -0.69180192661025
H          -0.29599848545677    0.92060481619891   -1.62413285122146
H          -0.86819475613736   -0.46061666722575   -0.90357461146045
