    19
        -40.92315428
S          -0.45538734087002    0.88670766140539   -1.37464078667528
O          -0.95858650285753   -0.41224436381505   -1.82916726758355
O          -0.94006213874814    1.16828672705936   -0.02196513988399
O           0.97278594097744    1.02236493468031   -1.47478706746072
O          -1.11447506777214    1.94834749916090   -2.33296353035100
H          -1.98572200964491    1.59018480124548   -2.47169763382900
O          -0.13075273768687   -2.10608916678096   -0.20843038553906
H          -0.66340998300757   -1.78391283850454    0.61054731849197
H          -0.51681153439861   -1.51968621839632   -0.98222339142789
O          -1.35042472887039   -0.85934145246141    1.64082070490016
H          -0.74150901682973   -0.59411522169778    2.33826118780174
H          -1.43589974956116   -0.06878046807293    1.06368052047063
O           0.98043155010298    0.92209960395776    1.79725700759170
H           1.50087098718199    1.71579067310545    1.92873425520387
H           0.29812191029621    1.15207114522608    1.12800116673373
O           2.00148829134433   -0.84280592083084    0.05805876782239
H           1.84730112892184   -0.18878969578972   -0.66101280837721
H           1.83878625620975   -0.32225013274411    0.87375870564087
H           0.85325474522697   -1.70783758676603   -0.08223163357831
