    19
        -40.91898898
S           1.05084089793665    0.26151159448495   -0.19192486310380
O           0.42120176068043   -0.75503399985086   -1.04680730303613
O           0.23300459246368    1.45422619328438   -0.11701525313496
O           1.33570293579372   -0.28447760931269    1.13701590045909
O           2.42844745378207    0.61308313442641   -0.81975588829245
H           2.23180712697260    0.73413656711127   -1.77271952180842
O          -1.62028155136625   -1.70017886481790    0.24371021950256
H          -1.56762994773821   -2.65531606930762    0.16752400795897
H          -0.89315396869323   -1.33914149213738   -0.33188947896905
O           1.38355547929682    0.36985368310307   -3.22625687530981
H           0.79954772348266   -0.12023405334076   -2.61479766615468
H           1.79364257280082   -0.28289897774307   -3.79865122080932
O          -1.49281673060792    1.77407778282132    1.77425297510335
H          -2.33545262278909    1.87069513951555    1.32483413861990
H          -0.79786383273670    1.80993340042729    1.06234015071545
O          -0.78173657980988   -0.57104895936018    2.35918387583492
H          -1.15407972125679    0.39585145762243    2.27624813483710
H          -1.24229810035480   -1.10570356885633    1.61528083481566
H           0.20756252214149   -0.46933536806607    1.95942781277479
