    19
        -40.92079097
S           1.26222876135471   -0.78377415449807   -0.02328829250113
O           1.41225976764603    0.58082187089843    0.48615300297427
O          -0.08285220634762   -1.28776359436634    0.21682328360008
O           1.70935668773543   -0.91709482176833   -1.38570789131763
O           2.20484928301967   -1.68698606289677    0.87141588139872
H           3.08010059776194   -1.41758374754254    0.61074403612453
O          -1.18951203272005   -0.51852566344483    2.46687766163066
H          -0.71787195449468   -0.97520559015525    1.73071234173496
H          -2.05770814699565   -0.92213738188963    2.52731659129876
O          -0.74568417534843    1.61341385781804    1.12159059125764
H          -1.01290131041920    0.93122645707110    1.82394169145440
H           0.23658718917356    1.31101208342445    0.88753848734363
O           0.23532325806879    0.88496639371477   -2.63653285901069
H           0.86648358730020    0.26334182011988   -2.21330157639996
H           0.22525759067067    0.66121919686767   -3.56913378913378
O          -1.70741100260908    0.50955810700209   -0.89540661251945
H          -1.31110070554881   -0.33959386277871   -0.61319510319703
H          -1.26602643640044    1.29977930669038    0.24482803910851
H          -1.14137877431121    0.79332578937719   -1.65137549202110
