    19
        -40.92218957
S           0.44493963158536    1.06431687640196    0.09281400781857
O           1.57235702367236    0.33099314720233    0.66844273003141
O           0.21152519738417    0.67726075275873   -1.29482239331671
O          -0.76363067980148    0.89580136657154    0.89321983585647
O           0.84121459334709    2.56939033919390    0.11900764933004
H           0.05354072017110    2.99829246401593   -0.27564451203842
O          -1.09713891824387   -1.50756662319513    1.80775384133548
H          -1.08404461332024   -0.57498567609117    1.46100112388857
H          -1.11177271218071   -1.43476964009107    2.76454932587047
O          -1.55008065553711    2.74312292326957   -0.96538432165727
H          -1.84408828720752    2.22783311866769   -0.20254463238250
H          -1.22184402595002    2.08690909473666   -1.59438318644683
O           0.48651252932196   -1.86163578908321   -1.74444387384492
H           0.30772198565243   -0.88634070336822   -1.66119458448025
H           1.18751086878175   -1.94848293113474   -2.39403110982236
O           1.09263664144784   -2.09028629599382    0.69536673576217
H           0.18716413717706   -2.02837793536807    1.19307886015064
H           0.85693021061681   -2.17803424328097   -0.30861791675360
H           1.43054634307730   -1.08344023520513    0.74583241069700
