    19
        -40.91268780
S           0.64609711429254   -1.01498680938754    0.51080165386170
O          -0.52608900079424   -1.86635035085604    0.48181822579689
O           0.94070851853081   -0.52026068965755   -0.85071103995388
O           0.54309893375247    0.05873294632557    1.47046742022956
O           1.88122912976415   -1.89458576092269    0.91656007018877
H           2.19541163104398   -2.29878949628796    0.11256431292255
O           3.02871715443727    0.82499941685485    0.39266066448791
H           2.50986449947857    0.48045969481819   -0.34102435913017
H           2.45311839640454    0.75467331905325    1.15994171519955
O          -0.78581157281756    2.16269767782006    0.69105687351443
H          -1.57914589021431    2.20100832199737    1.23009729857071
H          -0.20821526815293    1.46742629310251    1.09401418433144
O          -2.57420130773766   -0.79667864673167   -0.65738902889102
H          -1.86985670330114   -1.26679858210928   -0.13068495106201
H          -2.96424268004172   -1.45886123490094   -1.23186110845282
O          -0.95297721822850    0.93916680733792   -1.50614565130037
H          -0.92641916103938    1.59420943040967   -0.70085206203955
H          -0.08933751070362    0.35093390275325   -1.35562436263434
H          -1.72194906472551    0.28300377040950   -1.28568982563712
