    19
        -40.92129519
S           0.81784579477548    0.86311659283571    0.17781849079790
O           0.87615536881174   -0.22714504400708   -0.83084569626852
O          -0.43259785673510    1.59553794498838    0.00384047980304
O           1.01056241897118    0.34792041730393    1.50772867879694
O           1.99992679003554    1.81807965450840   -0.14928604391169
H           1.78729900078483    2.13691382911856   -1.05182794768573
O           0.66186403352249    2.08354106909236   -2.40099835634582
H          -0.03541717666347    2.13873080887009   -1.72746748258459
H           0.75950199532049    1.14451452634578   -2.59237400798681
O          -2.38252740309034   -0.10073591984106    0.33620213476336
H          -1.70815515272574    0.62469380190102    0.30924157565775
H          -3.08656436751308    0.15825961381870   -0.26192818603598
O           0.39917120189123   -2.10386293327736    2.14547638228549
H           0.63125499800364   -1.14391713671521    2.08111595946754
H           1.23114084547432   -2.57498644593804    2.22714198758923
O          -0.71275965593340   -1.96181722992776   -0.12140654429360
H          -0.32629332548850   -2.18406039560076    0.81005885217174
H          -1.51078534590014   -1.34652237386982    0.05800007222688
H           0.02037783643984   -1.26826077960391   -0.52049033845201
