    19
        -40.92120605
S           1.28544706386273    0.00837794000100   -0.49830517716636
O           1.73638939261096   -1.00064031011973   -1.41678227688828
O           0.31539872615903    0.93406059864226   -1.08397891452099
O           0.82565535858061   -0.48565643748645    0.78955597726403
O           2.55775163472276    0.90785746729037   -0.14600424000370
H           3.10247790483325    0.85839853928233   -0.92580018911351
O          -1.69775774418946    1.24729172387014    0.31891193974864
H          -0.92617474612428    1.18475838650942   -0.39497473219736
H          -1.17959540393574    1.56101222952377    1.13243312070698
O          -0.75091043317210   -1.92926130072736   -1.68753742804835
H          -0.70496574079839   -2.78387239007617   -2.12140340938993
H           0.16309669084350   -1.58583611775368   -1.66198093649079
O           0.11412983328214    1.68047010671265    2.07802739000874
H           0.76251502643630    2.36247857004332    1.89311228798614
H           0.50719820090467    0.83504359988815    1.76021915029097
O          -1.74441635336815   -1.22122376818689    0.67936996436652
H          -1.64150114158468   -1.58200469630073   -0.22711471037877
H          -0.82807630869540   -1.20454613207475    1.01483280593454
H          -1.89666197030908    0.21329199048073    0.49741935792420
