    19
        -40.92136358
S          -0.33923892384040    0.55911222459910    1.22263444989665
O          -0.78201853468167    1.02220931619441   -0.07330735578229
O          -1.38619538236461    0.00318453720090    2.04362245549939
O           0.81034885633092   -0.35271370241701    1.08823645883841
O           0.22877629803284    1.82819378627462    1.98948388396211
H           0.06656521529960    1.63690398749531    2.90889216926567
O          -2.22377233592333   -1.44351018373892    0.00650097770425
H          -2.03400503733491   -1.00936418934035    0.86907134599448
H          -2.63271556792630   -0.76211022382188   -0.53438596426301
O           2.34017899950493    1.06103202477266   -0.60527416382193
H           2.24900220228238    1.98181466633969   -0.35428318974666
H           1.92923660099455    0.54358414969330    0.11277678723939
O           0.43276472578780    0.12990754084738   -2.21647182720601
H           1.32330228269278    0.44783048974662   -1.94892399603904
H          -0.16271583436364    0.63450633968277   -1.61627584596113
O           0.15984360191787   -1.87974734598743   -0.79328944407989
H           0.30354315720055   -1.10814928265380   -1.55657118971540
H           0.55756170381817   -1.41501599518597    0.03156574436634
H          -0.84046202737817   -1.87766812963775   -0.57400130602577
