    19
        -40.91966064
S           0.42530422874769    1.28089389770582   -1.05388618341066
O           1.62262926315761    1.27203460766775   -0.19915875871118
O           0.44579557496940    0.15993031616090   -1.98069405263091
O          -0.78587802523448    1.35401314212616   -0.27482821980454
O           0.51776937347031    2.59568960707164   -1.91460324422203
H           1.32576913283655    2.47489654385423   -2.40386254579493
O          -2.14912306722488   -0.98377773930734    0.24623021377428
H          -1.53095989622563   -1.63958584364346   -0.09609831554313
H          -1.91824684684422   -0.14985562315734   -0.19522822053016
O           0.40285011334724   -1.96659663142701   -0.55380470533102
H           0.94277054543017   -2.64423535596019   -0.96504779759836
H           0.39740538070139   -1.18949312103333   -1.18505411899896
O          -0.99886647023233    0.31780998952915    2.23465773561816
H          -1.02166567415357    1.10926864385057    1.67229938924416
H          -1.60302891444639   -0.30346642212025    1.75927251296095
O           1.20646850364006   -0.53052857912097    1.43314315648627
H           1.48972805354610    0.28093030925347    0.80584903799432
H           0.29842463178348   -0.19585902677128    1.90084337966031
H           0.93285409273063   -1.24206873468701    0.76997074683324
