    19
        -40.91793141
S           0.32335216572201   -1.52412272036668   -0.81358024576698
O           1.15647806797501   -1.15448482983543    0.34225907752218
O          -0.63058930864699   -2.55712148120097   -0.48099127006775
O          -0.27353957171647   -0.35334063700838   -1.42247385748845
O           1.32066823504036   -2.12523954247203   -1.88326610812675
H           1.57291227738743   -2.97187125268285   -1.52471537463791
O           0.97567547670385    1.92817048473649   -1.18402584844271
H           0.59199129456350    1.02776337047584   -1.31031683206766
H           0.63611869593723    2.45992772610913   -1.90634030391664
O          -2.24656801440876   -0.73150507039746    0.47823370441037
H          -1.85152676165590   -1.58973475598613    0.20318838521536
H          -2.16817564777952   -0.18406402339672   -0.31204901211929
O           0.25570472721297    2.41917034377349    1.28087126308690
H           0.52363822171703    2.29861083148816    0.32867504577590
H           1.03837239353768    2.73046577349113    1.74004499307723
O          -0.30536769283346    0.02930264381591    1.92731020883276
H          -0.12329184669552    1.02885160650430    1.72857830675125
H          -1.19924562281634   -0.22255828669932    1.47960883409912
H           0.40339291074244   -0.50822018032338    1.32898905384293
