    19
        -40.91873750
S          -1.00542231180573   -0.18642213674452    1.37311884312738
O          -1.42857866753748   -0.77080097950470    0.11290792497778
O           0.26401848603825   -0.74539583584444    1.81758405784020
O          -0.98790967084138    1.26986042168759    1.30946288536721
O          -2.06501400257709   -0.56798792180800    2.47512396947796
H          -1.80663469448328   -1.45027812769517    2.72267275513826
O           0.66137680223555   -1.59536154255748   -1.48795530418463
H           1.44788572629140   -1.27637406694337   -1.03296737004067
H          -0.04627149636369   -1.60919650413250   -0.82184612410218
O           2.08198330661153    0.17835755955189    0.26362676435785
H           1.43513337728011   -0.22263417434376    0.91395689866924
H           2.84332431742056    0.45480192440751    0.77709931599758
O          -0.87765075728822    0.43027721789367   -2.22005344388470
H          -1.47625810099352    0.07720181482900   -1.53337654093302
H          -0.24476634547933   -0.31330250689046   -2.34890487775418
O           0.39208365975184    1.88656780757566   -0.65590718679622
H           1.18720810495799    1.30915820280728   -0.40921149961016
H          -0.14217758505576    1.35358820041801   -1.43526959668935
H          -0.23233013816308    1.77794064729863    0.17993852903935
