    19
        -40.91898896
S           0.15777630216688   -0.54469957025555   -0.94131698664877
O          -1.03079644999132    0.31327946641182   -0.83287812902208
O           1.35325298498567    0.17468457833490   -0.55335816493984
O          -0.01517162089119   -1.76996652715083   -0.15781022164364
O           0.27802609510862   -0.99303967707952   -2.42465334546358
H           0.14437207789833   -0.16630354728948   -2.93454666188756
O          -1.50825235463552    0.65330574931540    1.69370461349202
H          -1.34629970910577    0.61778854125214    0.71242566093563
H          -2.44937369668872    0.50711854823263    1.81105685010962
O           2.24461120278657    0.08665739926586    1.86632573025573
H           2.05820357685193    0.11554980308665    0.88881975250932
H           2.24561346680398    1.00017452030789    2.16107861097174
O          -0.56976284102178    1.37850964874118   -3.19844856341251
H          -0.85645259241386    1.26569554352473   -2.27099944942290
H          -1.36628477004380    1.38691628859743   -3.73441900169733
O           0.12154832995850   -1.21796794392797    2.23712454716527
H          -0.57762817330828   -0.46914598834323    2.19520599102707
H           0.07368037988780   -1.60191564603671    1.23748411533861
H           1.04293778165235   -0.73664118698916    2.24520464235154
