    19
        -40.91899959
S           0.59599475017653   -0.26570714139299    1.02689154590592
O           0.38904590775816    1.16512719476487    1.10602699054140
O          -0.50466449931488   -1.03329261533699    1.56314064617216
O           0.85782479930256   -0.65585605914904   -0.39099321569402
O           1.87359308919652   -0.64986039243929    1.82095893478803
H           2.59931602534484   -0.25457818117030    1.29393358205845
O           3.36725062032024    0.16478731720979   -0.18994599935915
H           2.49516201936198   -0.05577791812331   -0.56709963642761
H           3.99172100098574   -0.47363178512541   -0.54232206007482
O          -2.64185492701069   -1.16603664798068    0.12794606194222
H          -1.90148138183346   -1.11495620655207    0.79334156596861
H          -2.89179999312936   -2.09123354148127    0.08340854537530
O          -1.17152662643372    2.20516401145438   -0.66026238246873
H          -1.96097550617552    2.46039798530994   -0.17746982137417
H          -0.50272108505140    1.93987241609202    0.03053215290605
O          -1.19198337921097   -0.10675909846197   -1.65366948516045
H          -0.26284001535163   -0.39251410415833   -1.21214965212675
H          -1.88824510981243   -0.57601239617768   -1.05516156280983
H          -1.25181569915002    0.90086716271210   -1.39710620015941
