    19
        -40.91898900
S          -0.16720383249810   -1.08694871255944   -0.03037629905807
O          -1.59815086524467   -0.77594248207188   -0.06190069118465
O           0.50541600981086   -0.63639854354063   -1.23104308772915
O           0.46165100613103   -0.51735058800563    1.16981754418287
O          -0.06261463069341   -2.63409317851613    0.07568164002077
H           0.86947989824807   -2.79154089487121    0.33619471528082
O          -0.30266251922696    1.45230232537414   -2.51220346286001
H           0.44891132321169    2.04936105016302   -2.50794679727260
H           0.03718693967707    0.58311792317453   -2.16563207210513
O          -0.14922335539246    2.00243270230074    1.24531145408786
H           0.17516406441190    1.06163795966667    1.24516078633914
H          -0.43667561663066    2.18207006231889    2.14307640617688
O           2.32255751428499   -2.38333056391651    1.16628898446649
H           2.42969070801395   -2.76595934567277    2.04033635058292
H           1.86569156352002   -1.52811309315636    1.28827483190962
O          -1.89071265257635    1.61622798272334   -0.56338935852161
H          -1.25932594858120    1.93960940962569    0.17698902983417
H          -1.33844349287332    1.67110261719051   -1.44236525623631
H          -1.91073611359818    0.56181537977681   -0.37227470790977
