    19
        -40.91892671
S           0.90257876827592   -0.97716171220678   -0.53572989660758
O           1.36981880501087    0.00130898158529    0.46425001520449
O           0.56174542098442   -2.23998084480401    0.08329217958785
O          -0.13373227696788   -0.41324726873302   -1.36473794114102
O           2.14606817541292   -1.24170882321983   -1.47613439707172
H           2.69742153619771   -1.83987316082769   -0.98032356292936
O          -1.52761806211854   -1.63586556097655    1.50446279432148
H          -0.80124615079731   -1.96791696286090    0.91693587461768
H          -1.53060045785009   -2.20436109524832    2.27767664068356
O           0.90248095568804    2.08076065253821   -1.38696809870781
H           0.68416390097756    1.17783136097862   -1.67246511822088
H           1.53184646489967    1.96393400977082   -0.66928444657043
O          -1.60421904417915    1.75123105910943   -0.52246336553120
H          -0.80660481741724    2.22292837989644   -0.85351312433206
H          -1.59917946570425    0.92482122046650   -1.03127492115093
O          -0.70307705159018    0.76621067979380    1.59210814029878
H          -1.15884833125874   -0.14663374773705    1.67279981712353
H           0.24283609692116    0.51444466951940    1.20716598366324
H          -1.17383447647228    1.26327815297355    0.77420341676346
