    19
        -40.92120552
S          -0.57405417020372   -0.26739770618147   -1.22562046127359
O           0.61819966833762    0.58057679092953   -1.19534974663993
O          -0.36140579403521   -1.52384066780586   -1.88973686828864
O          -1.18697552497514   -0.35629344964239    0.08960877944625
O          -1.63601021491552    0.54185551956484   -2.10234828241258
H          -1.47137832102963    0.25306757269960   -2.99496979772994
O          -1.35032699079442    2.13433876718236    0.88265342516900
H          -1.49739702328046    1.19696394569018    0.61813425621277
H          -1.61927383412492    2.66866096433138    0.13309192996761
O           0.65175861805726   -0.80038828365476    1.98239118422290
H           1.16855611352165   -1.39171365154714    1.39433230051065
H          -0.23403662589879   -0.80145600038394    1.57280895810439
O           1.50954255093828   -2.20190288549079   -0.11226489402504
H           1.68801567069574   -3.13964902801563   -0.20937980158636
H           0.87327008239441   -1.96970202587283   -0.81616646731298
O           1.11824342085257    1.46989925307641    1.05801561080065
H           1.05400209000289    1.13866897133077    0.06040419969773
H           0.21696477485546    1.92193480303685    1.16706124534831
H           1.03230548960518    0.54637712062827    1.58733445978720
