    19
        -40.92115639
S          -0.81717487757706   -0.51601591392283   -0.43491709627027
O          -0.23822334728735   -0.88628501747025    0.88022041581148
O          -1.64019553673955    0.67615802614068   -0.28697825978161
O           0.22164315637257   -0.35687011633684   -1.42771720427317
O          -1.72342448789678   -1.70246358895865   -0.86389169128473
H          -2.41192407295028   -1.72546866916193   -0.16248890722940
O           0.42457319261875    2.28630873397674   -0.18202058607835
H           0.68807635860919    2.29959458317198   -1.10583033840256
H          -0.45244053953350    1.83348547580777   -0.17764652835926
O          -3.03734772531160   -1.00834368640830    1.29900165763905
H          -2.29635630028526   -1.17227795242293    1.89162392831019
H          -2.86999392811964   -0.13548137479397    0.90995554714172
O           2.76891946538670   -0.59637202271500   -0.90772148972866
H           1.83785357399125   -0.67313241726852   -1.22745777690755
H           3.26885108989896   -0.17504518980533   -1.60942424184410
O           1.73936126858858    0.53485921686643    1.13415936509512
H           1.31840730866089    1.35967034311314    0.69420170407475
H           0.88257224748949   -0.15163086750313    1.14991473608461
H           2.33682314411357    0.10931042768685    0.42701676598390
