    19
        -40.91892665
S           1.00208458768613   -0.74937804441219    0.70179119263901
O           0.62583415478184   -1.11340429073613   -0.67716660520436
O           2.19225659591227    0.07360722922280    0.72225693887093
O          -0.12357507545418   -0.19925274572263    1.41560945659314
O           1.36985021390310   -2.11421092076941    1.41058193402957
H           2.24967554128497   -2.31263617190764    1.10368211435600
O          -1.96530051466386   -1.77833594425700    0.22787911082279
H          -1.41339397177915   -2.10655022145306   -0.48802673452101
H          -1.33723869214409   -1.44072479947483    0.88828822363389
O           1.39210426189964    2.27742702902193   -0.39663387884297
H           1.74767179497089    1.51303537828582    0.12528459655327
H           2.14058800737479    2.65928676620930   -0.86030997452401
O          -2.26856794177034    0.87200341279408    0.07056077699589
H          -1.70293534254800    0.91480361334170    0.85797593470961
H          -2.51396023630426   -0.07958929396105    0.02247363711372
O          -0.40732292485628    0.94514153169886   -1.59831807693809
H           0.26361688229576    1.61719891513600   -1.21650465404633
H           0.02033904672828    0.02141124099678   -1.33305658563304
H          -1.27172639732285    1.00016733599849   -0.97636738661516
