    19
        -40.91792353
S          -0.92765646138420   -0.11710959608603   -1.40811353560709
O          -0.06518426875882   -1.28625724928512   -1.37045402948384
O          -2.05286980278651   -0.23856678216456   -0.49735627036904
O          -0.18275843841965    1.11796141294293   -1.21243356343593
O          -1.53713237359252   -0.03219547778112   -2.86737658347507
H          -2.16360271805712   -0.74918050632596   -2.86915389484484
O           2.13956978329544    0.89307312905271   -0.13001374382826
H           1.31082814511470    0.92658473174389   -0.68283718815608
H           2.55353363659228    1.75435954025173   -0.21155741901949
O          -1.20921859903762    1.36412158429539    1.31468497194440
H          -0.90410819835200    2.01162995777026    0.66770714109936
H          -1.69032756290039    0.70121653618719    0.74704616902064
O           0.39294477417566   -2.14737898201415    0.99480934795986
H           1.16009988151485   -2.71630374567613    0.89791673300336
H           0.13956031292279   -1.87312667270793    0.06504747701957
O           0.88255065678682    0.12850213175712    1.93312671437970
H          -0.02502571680383    0.65609065721975    1.78616313232594
H           0.67451225444727   -0.85988672589469    1.65611440438116
H           1.50428471524485    0.46646601671537    1.18668012708547
