    19
        -40.92453733
S          -0.53314703198714   -0.75763134471808    1.20993320873926
O          -0.85108872129882    0.65120633301524    1.41286772291806
O          -1.21409495882010   -1.27740963160149    0.02926775592752
O           0.89278682239688   -1.00731946383364    1.18204922126606
O          -1.10061044575866   -1.54404897212329    2.45671849731655
H          -2.02947177409117   -1.33296087860769    2.47892321531917
O          -1.58707411542284    0.96255188566487   -1.21952701975932
H          -1.71746646942526    1.52256071353329   -0.44527105472308
H          -1.59244228749136    0.04443206502760   -0.84615664287221
O           1.44762498035938    1.62620519386607    0.68602883724970
H           2.01104777143730    0.92131560120552    1.02590654293081
H           0.55940039401615    1.41910254913195    1.07027278748759
O           0.88579714406064    1.02782101051765   -1.69728441050810
H           1.21927905100345    1.37506505190893   -0.76769408295012
H          -0.15584889337652    1.09100855171207   -1.63467332690708
O           1.16044485503739   -1.45507153319898   -1.36234044989153
H           1.08408378487599    0.00002394213915   -1.68844824064314
H           1.22930099475156   -1.42144757553570   -0.37663157698267
H           0.29147889973253   -1.84540348810471   -1.51394097391701
