    19
        -40.90719789
S           0.51367311192324   -1.64039306097905   -0.50753572708427
O          -0.04472656887188   -2.35820765190077    0.58911503574906
O          -0.31285717163810   -1.41334841920730   -1.65564195312083
O           1.11044690205403   -0.31341756778070   -0.04148086060420
O           1.79755399895679   -2.41540044919254   -0.98422572793993
H           2.05741693941613   -2.04676399611712   -1.82665059922289
O          -0.56536355171324   -0.96001330218662    2.87719526335931
H          -0.30280832122480   -1.55391260834211    2.14940589043191
H          -1.29759184562528   -1.39586808471825    3.31765868440295
O          -0.47199573457085    1.25183908095480   -2.21963360970944
H          -0.40222941666178    0.29457137234441   -2.05266533636167
H          -1.39960693894155    1.41233259960056   -2.40479574823269
O           0.26305124968236    2.87603790770613   -0.12871039966529
H           1.21228927935373    2.77593380331453   -0.03754959959630
H           0.02824124758989    2.40918934944465   -0.95644296498741
O          -0.91718740013532    0.75637111101888    0.88901705669628
H          -0.66216095205012    1.70403188922748    0.84235856219256
H           0.26341128718244    0.20000887283731    0.34298990648987
H          -0.86955609473105    0.41700915396029    1.80759213719852
