    19
        -40.91898899
S           0.03498058483702   -1.09264784877552   -0.11805249523406
O          -0.45484308779448   -0.73782956248232    1.19760174399015
O          -0.63613218212273   -0.30290620036643   -1.16024233180015
O           1.48918437177192   -0.94411507731224   -0.21286452360382
O          -0.26583712841318   -2.59128156720050   -0.39943618565914
H          -1.23023497373027   -2.61094269650604   -0.57614337211561
O          -2.69591740025744   -1.94547463898530   -1.18568128814635
H          -2.15488046939943   -1.13405235774792   -1.24966960625503
H          -2.92738030804687   -2.19413060085975   -2.08371447676069
O           0.72326310301786    1.06382341254050    2.62117858075579
H           0.05301363933582    1.73382945807112    2.77375704346198
H           0.24812435871871    0.28994162734727    2.21371295832393
O           0.26574573072321    2.12382896720203   -0.99940257557000
H           0.48105186364302    2.39051953716398   -1.89565951888206
H          -0.16874386982118    1.23191126601347   -1.07615674951821
O           2.11892784236165    1.31332868265455    0.53803171539579
H           1.66772056016210    1.30987249360790    1.47413957760176
H           1.99045261721542    0.29709510742318    0.21915583465479
H           1.46150472781742    1.79923000824093   -0.08055434062367
