    19
        -40.90719765
S           0.82739168093320    0.58456031859836    1.47999656624108
O           1.89985700425238    0.92953057969370    0.59484058615880
O          -0.10876593711118    1.60085635977392    1.82690433397505
O           0.11126814013211   -0.65645519535222    0.94971787490444
O           1.46023876852126    0.03990730662691    2.81377176097221
H           2.21206769355709   -0.49904135545165    2.57431078697407
O           1.92100266059484   -0.70365126608194   -1.59067947356111
H           2.06096467506779   -0.11757235115612   -2.33733070561114
H           1.94805256598408   -0.13142356375815   -0.80271466270089
O          -2.63275161672405    1.39533106325690    0.80311651064304
H          -2.98150370872408    2.28533125778203    0.72327013967031
H          -1.79973734198364    1.48120578168334    1.30336800403926
O          -0.44404490175742   -2.03821455332414   -2.00508286954753
H           0.45809820196337   -1.66437890807793   -1.93615618661936
H          -0.50475079253355   -2.69386303795316   -1.30818140013088
O          -1.02653916860390    0.32795801101569   -1.01399515923432
H          -1.85924845198087    0.62075961137172   -0.58718397514893
H          -0.37379659525521   -0.28871742008880    0.07861719760830
H          -1.16780287636095   -0.47212262859256   -1.56658933860671
