    19
        -40.90719782
S           0.40716496755248    1.71608140018359   -0.32098070466950
O           1.12662941970761    1.65131061048628    0.91629856793903
O           1.13305151093854    1.51221669107451   -1.52979453249548
O          -0.80588229502023    0.78986669473457   -0.25217041267735
O          -0.27810734426592    3.13020732890459   -0.40581388414917
H          -0.59759362449252    3.34585784490535    0.46864520414405
O           0.67360923152149   -0.80495634611059   -2.90090730914868
H           1.47709606005609   -1.01763605090617   -3.37971998922040
H           0.80868270386128    0.09196661658686   -2.54208127555629
O          -1.62159928887481   -2.00474022297170    1.31084163604902
H          -1.10728431233159   -1.39877584402343    1.88232787065259
H          -2.40517118687934   -1.51441813014668    1.05581562086931
O           0.01882355273247   -0.20421992577869    2.58241692342328
H           0.76333059921681   -0.68975325489693    2.94376891362376
H           0.40906970236395    0.48391434888651    2.01378653481084
O           0.33507119564764   -1.40348777992342   -0.34171058852823
H          -0.36171427468586   -0.17544760734849   -0.25722778437000
H          -0.34442117045680   -1.98140405500278    0.07025726645465
H           0.36924454338987   -1.52658230865837   -1.31375205715127
