    19
        -40.91793136
S          -0.50537852785332   -1.64989184157605   -0.32878526521141
O          -0.67561712513678   -2.44183067344217    0.86761234492688
O          -1.50956697236361   -0.57803003376678   -0.42481767301344
O           0.83462144101444   -1.12588777830394   -0.49529326653048
O          -0.77213635297635   -2.59664984769582   -1.56677019584531
H          -1.58248170362637   -3.05008534745011   -1.35057450092243
O           0.67234118644822   -0.65120314069901    2.22481575649269
H           0.15070729008238   -1.44630611377192    1.97165811834249
H           1.39238465121467   -0.64060335668761    1.58312022561842
O           1.13542345044326    1.03930487839881   -1.92487774201253
H           2.05193462977719    1.01199493567840   -2.20626815525159
H           0.97071697963181    0.18212675561292   -1.46443734456421
O           0.35221430076042    2.72518461387860   -0.08629910127342
H           0.69772060006839    2.12902384661072   -0.80604250281743
H          -0.22874515521064    3.35470473891534   -0.51823006765330
O          -0.96149251238789    1.06824031852367    1.31883808920291
H          -0.28938200506830    0.48028095782708    1.83431176079958
H          -0.42343691490619    1.79332384249742    0.81253391154677
H          -1.30982724992584    0.39630325549493    0.55950560816127
