    19
        -40.90719757
S          -1.59991008087493   -0.18484546620197   -0.78453051241972
O          -1.96719372771194    1.19168921119459   -0.78119996322851
O          -0.86307851964286   -0.68363662681861   -1.90742045616180
O          -0.87119394013905   -0.55576027825255    0.50600646021513
O          -2.91911406299321   -1.03364883223657   -0.65939149199635
H          -2.69484727530962   -1.94046719379840   -0.86055008190602
O          -0.70568909350322    2.82835391799258    1.00437134345619
H          -0.69412997361412    3.70957651601681    0.62567091961573
H          -1.28436804804644    2.29844775141666    0.42485796061047
O           1.47451064128418   -1.83056281998436   -1.08958697457423
H           2.13962098753338   -1.50238264659513   -1.69825378880303
H           0.63080026951293   -1.45407020994091   -1.39834688916268
O           2.23429334492251   -1.11532312833636    1.45295089789839
H           2.04775303136717   -1.48374214317236    0.56547641220221
H           1.60967230388318   -1.53996065043101    2.04370888882530
O           1.06923154949194    0.97182977425212    0.35361745527992
H          -0.00527798087239    0.05940368478082    0.47018406418501
H           0.68729217987363    1.75774661056081    0.79846562957834
H           1.71162840483212    0.50735253955683    0.93397012637834
