    19
        -40.91892655
S          -0.82893114752033    0.47288805272688    1.07023539474471
O          -0.10625836576201    1.55168438060019    1.70897868563815
O          -1.15750066652764    0.80214368545499   -0.32941640980632
O          -0.19043556552449   -0.81677194318986    1.16078582234579
O          -2.22126824940866    0.34607846431473    1.80948664377535
H          -2.48788745489572    1.24629253544928    1.97137249814177
O           1.04980030956258   -1.94312722271104   -1.01781407833419
H           0.12065490096063   -2.19655746013289   -1.21950089464961
H           1.04564921142128   -1.83777454178771   -0.05304744234954
O           2.15892525015439    1.55674178281485    0.43633318837703
H           2.48211878803238    2.46021854353142    0.41664385401614
H           1.36669261079717    1.55662596593823    1.03239181859491
O          -1.61662589799385   -1.93669121861691   -0.84154649239270
H          -1.33200467943509   -1.69472148495044    0.05566384762072
H          -1.98440688937102   -1.12690973182911   -1.20733372485796
O           0.98033791442643    0.49915265514055   -1.55097915150878
H           1.59495471410873    0.93769738644275   -0.85979606222747
H           1.10163465321096   -0.55383917538518   -1.43262642456015
H           0.02455057378773    0.67686933619330   -1.14983110256823
