    19
        -40.91892672
S           0.29282223985232   -0.76696339630171    1.17615917594454
O           0.21910978015987    0.67138019553073    1.24582337701274
O          -0.92863074358460   -1.45320572235158    1.53815640299830
O           0.78470120528403   -1.20715249875143   -0.14288570953004
O           1.40212565949771   -1.21782390782196    2.20907027089316
H           1.24616054923517   -2.14911038345112    2.33615584421441
O           2.40209028358446    1.10312279378489   -0.28377176307360
H           1.84052617082126    1.00225947875058    0.50303034057341
H           2.49305722335348    0.21220276357681   -0.63422281093774
O           0.08484984005028    2.19861854194621   -1.03748864721476
H          -0.18425728565564    2.10801556688664   -0.10958374209478
H           1.05666142252124    2.04726896744408   -1.00478898213813
O          -2.63670790846267   -0.53460016822185   -0.19070264155849
H          -3.27892756500515   -1.22638591253218   -0.36417557460897
H          -2.07580012811676   -0.85669454417036    0.56065225763853
O          -0.70002585152666   -0.06121468458585   -1.76649379324506
H          -0.01871103281279   -0.61275557954340   -1.18499944161316
H          -1.58294648502963   -0.20674896025304   -1.26970929862350
H          -0.41609737412775    0.94978746009498   -1.58022526466894
