    19
        -40.92136376
S           1.24164832632752    0.43611649557157   -0.43967983020962
O           0.48083017352341    1.18257081571088    0.57812060549917
O           2.46514444617706   -0.11513455232189    0.08774093822389
O           0.39637615685753   -0.52517951317324   -1.11108454618059
O           1.64816272594949    1.52000009784877   -1.52621750419260
H           2.49156653966825    1.84655792018389   -1.22572754454806
O           1.11619610159769   -2.10885109061414    1.15845220722123
H           0.90392983554493   -2.61886317525240    0.37174124040382
H           1.76670885693703   -1.43297952657596    0.86061409848325
O          -1.70211679273565    1.83249008281313   -0.84259602465171
H          -1.40085339765074    2.03685807430750   -1.72953007376591
H          -0.89872201447413    1.77008304135272   -0.29212729278886
O          -0.83885263984045   -0.58771739954075    1.77008293024502
H          -0.32866485977679    0.24862928020044    1.46258540737370
H          -0.12478084643722   -1.31595182493869    1.67706003629953
O          -2.10151395798924   -0.75649243101197   -0.35493067094070
H          -1.52808608454689   -0.73151811080823    0.93175437316583
H          -2.33110238440573    0.18314642744659   -0.52851839293997
H          -1.25587014472101   -0.86376460120424   -0.84773994669480
