    19
        -40.92007399
S          -0.58773987618515   -0.91183636143690    0.87841682112487
O          -0.59328618736771   -1.06168238223157   -0.59084213007683
O           0.41252488788364   -1.75858549244792    1.48901525708727
O          -0.52587479918060    0.47544139143788    1.25622240687072
O          -1.99986396570619   -1.45551853292001    1.35150708854042
H          -1.86922899615018   -2.39682224901032    1.41679401977702
O           2.57594323652125   -0.53582322417599    0.70340995969824
H           1.80102304404528   -0.99040265321532    1.11801357689003
H           3.28325338685531   -1.18361536773930    0.66811102491332
O           0.10376014073683    2.25836648778056   -0.56783954810429
H          -0.03833361218889    1.85246321594700    0.31632631911469
H          -0.76176226209068    2.10223419217840   -1.01220189815394
O          -2.17433085713333    1.03511570346118   -1.18992938688225
H          -2.76216519687214    1.12446934474598   -0.43722175345821
H          -1.71772459300940    0.18145729205797   -1.07092916277231
O           1.36622353054880    0.29491292203738   -1.37940845191781
H           2.00145633000068    0.04995823126899   -0.62026962548204
H           0.57510646021095   -0.34297652975853   -1.22251988042434
H           0.91101931904134    1.26284401203362   -1.10665464672146
