    19
        -40.92136313
S          -0.10135903153483   -1.28095877934161    0.52427653993390
O          -0.92655876877204   -0.17282853559451    1.03717633815818
O          -0.89343856552555   -2.29986633494611   -0.11872450446377
O           0.99056086241637   -0.77987469640159   -0.27947784899812
O           0.54960083483972   -1.93938000443304    1.81393414489672
H          -0.07955832197198   -2.60407790895874    2.07987949153275
O           1.18761443927793    1.80306721888181   -0.67731167861415
H           1.24187908389988    2.03241116388785    0.27664468379723
H           1.37624702095157    0.83683132917435   -0.67508353429698
O           0.99386099904898    1.46110612540255    1.95846190083629
H           0.22789574380573    0.88162428719735    1.78576159276671
H           1.66643693877182    0.90216875263533    2.35123823040550
O          -1.03282871493328   -0.82751001310359   -2.29883234462975
H          -1.11114069358963   -1.48692005358715   -1.57233516480516
H          -0.13728345622945   -0.92637531818471   -2.63398111080978
O          -1.22927837858789    1.32907576345252   -0.94966431453149
H          -1.28247978952488    0.81039113346787   -0.06481193133865
H          -0.19671288702346    1.68986024885773   -0.91861194565369
H          -1.24345731532718    0.57125562159076   -1.63853856418364
