    19
        -40.91352056
S          -0.38589840285087   -1.73532451763104    0.93913513944219
O           0.75677767048908   -0.83914281459790    0.70628605331905
O          -1.52747639394416   -0.93539299980188    1.42055693453024
O          -0.67855278718461   -2.55754160983357   -0.18989010397538
O           0.00409002914660   -2.66287891251956    2.15368051952982
H          -0.00755013142763   -2.08891304450985    2.91522430100402
O           0.60766854535491    1.81194536909854    0.84026999267854
H           1.06296882228897    2.06117158147920    0.00702319101897
H           0.84940957824278    0.87204195507984    0.98972448239188
O           1.58626333512140    1.86785659739937   -1.66827599156096
H           0.99912482242334    1.16375612890916   -1.97999025847816
H           2.48374929328576    1.56416682401324   -1.81440973877481
O          -0.17408721791403   -0.31126770591548   -1.68638299007431
H           0.31996896783368   -0.57921706550731   -0.87544488817521
H          -0.55916859902142   -1.13757500514453   -1.99609202494458
O          -1.61431687035367    1.06953873809567    0.00308463410671
H          -1.26407797845572    0.65700079565362   -0.83913438770861
H          -1.71189390171109    0.22056284656418    0.66451880764255
H          -0.74699876133557    1.55921283916716    0.41011629803628
