    19
        -40.91352078
S          -1.85281763487918   -0.44234589528803   -0.64219125390246
O          -2.15499570272192   -0.08913326986699    0.75747491396265
O          -0.68974994842970    0.33935105591241   -1.08839462071666
O          -1.69655945837216   -1.84157992571315   -0.87487424682509
O          -3.09224371910169    0.07349430419742   -1.46996426724778
H          -3.27296380049171    0.94431689364841   -1.12569966300643
O           0.89662210466156   -1.47154978763252   -0.05146651247651
H           0.45195744466409   -2.31252154177481   -0.19989297271838
H           0.37665256881236   -0.83802941823337   -0.60073956916374
O           2.91538828642482    0.45645434902526   -0.28718688796329
H           2.46565419261635   -0.39661683396201   -0.19920308609354
H           3.18941924118411    0.53130498328410   -1.20284913131100
O           0.77023653902783    1.86869342319958    0.52350513501671
H           0.19335734470513    1.54405663683279   -0.20173936771343
H           1.67531994686190    1.58016913730034    0.27599592826076
O          -0.00020447846708   -0.02893027124906    1.93610296856566
H          -1.00879281809706   -0.06241640318544    1.54858888006659
H           0.46660496036112   -0.73708922020152    1.40439533293681
H           0.36711493124654    0.88237179370867    1.49813843032427
