    19
        -40.91352109
S           1.35052636180740    1.37691319341542    0.56654671790414
O           1.33159806407101    0.03679742421531   -0.03866709180320
O           0.40698828906848    2.24301963937907   -0.16489511218296
O           1.14572072865214    1.34492483294741    1.97846260134050
O           2.77470295000380    1.98840986027581    0.27462354868267
H           2.77148899314538    2.18471352905607   -0.65863101833871
O          -0.38629911655413   -0.70920350776479   -1.92558213420659
H           0.43135440292018   -0.49847717276839   -1.42434628218526
H          -0.69161521248353   -1.56871981376817   -1.56280472906637
O          -1.09159942946012   -2.74040973253645   -0.30337101907892
H          -1.13982711873932   -2.17786614171426    0.48334293281074
H          -0.44336697264990   -3.42160491720547   -0.11679469205381
O          -0.73876572837129   -0.58040961720294    1.44573408972928
H          -0.58955802145154   -0.13548324339817    2.28641708504519
H           0.12479383317859   -0.48245822771028    0.97874605496697
O          -1.62994097256791    0.91270666108420   -0.50678837239532
H          -1.23306314709375    0.24903056652449   -1.25449734321130
H          -1.57783019961177    0.36488213739103    0.32945256983632
H          -0.81530772386712    1.61323453978301   -0.38694779579083
