    19
        -40.91352106
S           1.58058268940105   -0.98399360627036   -0.75780075138324
O           0.65639675914880    0.08821405731152   -1.15637511610421
O           2.09709544265284   -0.68994986560486    0.59205624555273
O           1.00758308586053   -2.28341608883138   -0.89791589941194
O           2.83624295035887   -0.87877775633471   -1.70631405535865
H           3.29515141385420   -0.09307823080198   -1.42067228614905
O          -1.28372863162293   -1.14648314630823    0.10150208842871
H          -0.65524790572628   -0.71038484397244   -0.52158927797929
H          -1.11583591756628   -2.08498015602579   -0.03269479554636
O          -2.67414318430861    1.27855534738667   -0.08638715680055
H          -2.48280928861603    0.33466495465752    0.01449862558528
H          -2.99834585674110    1.40088701180454   -0.98025691634266
O          -0.14847108136845    2.02817578846138    0.47370467732288
H           0.24219964489107    1.52616637362865   -0.27432680778838
H          -1.11678608859728    2.00889284925094    0.31369244999864
O           0.16691245307550    0.03442362502211    1.92824214827864
H           1.08374098654567   -0.30448197053507    1.46641218281457
H           0.03978185344062    0.99871822340448    1.46887515499238
H          -0.53031935468663   -0.52315256623763    1.47534949988803
