    19
        -40.91965977
S          -0.63167876336722    1.23413746093307   -1.00516362268073
O           0.74474633255848    0.82565187254460   -1.13778502719661
O          -1.57812277788420    0.16266222715100   -1.27468321447854
O          -0.89416090319275    1.84283750674951    0.30798581464432
O          -0.89841236676257    2.36357646133273   -2.06892064821812
H          -1.82447407823689    2.55243667803234   -1.95212204719851
O           2.26619428148861    0.03811642305728    0.97899719632244
H           2.19257260069647   -0.82921851973099    0.51067505506093
H           2.13136725407291    0.67936738118815    0.26216471236505
O           1.37215398800247   -1.81784610727337   -0.67233465174510
H           1.15481761748619   -1.01375045706485   -1.17208258794210
H           0.53161109286056   -2.15250506283716   -0.33909219962619
O          -1.20171011123327   -1.61445739432336    0.53115662721886
H          -2.03994431762362   -2.01108621861909    0.77587528579443
H          -1.39779594675239   -0.98426515916247   -0.22171505573686
O          -0.03117742430387    0.20463761322237    1.93806173880084
H          -0.41486312695655    0.99539953051780    1.33799272772780
H          -0.48348386163525   -0.61122517916482    1.55030956144721
H           1.00236052069244    0.13553096344320    1.65068034545406
