    19
        -40.91352107
S          -0.62689802320177   -1.13445682869146   -1.53654702380150
O          -0.69077982453663    0.19598674758100   -2.16997578022031
O           0.45170389403408   -1.13298047113191   -0.53695312874535
O          -1.86907033985980   -1.59218824204030   -1.00366180445602
O          -0.17833692949589   -2.11318407795310   -2.68906824175145
H           0.52311750857370   -1.65343480778107   -3.14305505013861
O           1.79964028916952    1.04345320471770    0.18049153897140
H           1.76326554340880    0.96480397420481    1.15828523500010
H           1.55424790026898    0.15375462781965   -0.15477406758908
O           1.07492858256852    0.50249239764135    2.71761606234635
H           0.15524491544130    0.31340579827177    2.48069305218579
H           1.42190199466159   -0.28911848231483    3.13234448112820
O          -1.20965991858742   -0.12501759395719    1.22220601532764
H          -0.57634641075357   -0.64711127303610    0.67471274371450
H          -2.05978817134278   -0.53488175679357    1.03176829490415
O          -0.49745682890592    1.83718805243171   -0.35207344435663
H           0.54663458354213    1.68432241156544   -0.14350486683115
H          -0.63286537655087    1.22413340896769   -1.23216867188301
H          -0.94948340843961    1.30283291048913    0.36366466619224
