    19
        -40.91892664
S           0.14970210331359    0.83768499910173    1.15550311372632
O           0.18853862168192    1.41117333615230   -0.16691076316541
O          -1.14590518113771    0.88712920606531    1.79831204553661
O           0.69491592264721   -0.53281305568515    1.15264785744479
O           1.14331117209371    1.68272389720977    2.04956860679647
H           0.90241279464159    1.46423810370500    2.94503293858316
O          -2.65205541394112   -0.46176476206043    0.16726488076079
H          -2.17162628646099    0.14564573304924    0.78642722414897
H          -3.33557916578047   -0.89127958558667    0.68628011468796
O           0.33242294309091   -0.18801690360978   -2.40224104982957
H          -0.00720065738736    0.63772932603199   -2.02255830617429
H           1.28427214339471   -0.17511839895454   -2.15226595414071
O           2.49717917932106    0.21253654902869   -0.88969235218627
H           1.87701221070699    0.89209493423904   -0.57607359941196
H           2.53986773531879   -0.42766648637154   -0.17329520311522
O          -0.57937365449692   -1.69748934974884   -0.62868828327897
H          -0.22872659199761   -1.15559519863672   -1.47732958734561
H           0.01417931841024   -1.32486750409468    0.15587417830309
H          -1.50334717342328   -1.31634483982207   -0.40785585131452
