    19
        -40.91966056
S          -1.46112065691034    0.87080945050466    0.19524135302696
O          -1.31222218104284    0.92403168940792   -1.25077448063920
O          -1.92041944596833   -0.45964067995575    0.62275666900992
O          -0.27474135858616    1.28001008100704    0.90538833935027
O          -2.61425678528257    1.87102149954369    0.57986157760172
H          -3.35386133339600    1.55006039633261    0.07312528115896
O           2.17097565215437    0.91488195781147   -0.32067113175168
H           1.91324670225873    0.41050777320668   -1.10087611659808
H           1.36665100436330    1.37325290439411   -0.02717293101242
O           1.57059023211725   -0.48485996928960    1.83714925191961
H           0.91021235535688    0.19941698823680    2.03664565929450
H           2.11730825365505   -0.05877754340374    1.13298424349560
O           0.48965038011018   -0.78980463689594   -1.86356524944149
H           0.26967498921011   -1.20782794755439   -2.69823784065692
H          -0.20446680190255   -0.08468355393610   -1.71026844511986
O           0.07416663817414   -1.89900617603824    0.42868429492826
H           0.33903795869186   -1.62414758275154   -0.50676674404430
H           0.76275107687985   -1.40406603057051    1.09005191136174
H          -0.84317668992159   -1.38117861003279    0.57644437809901
