    19
        -40.92218953
S           0.06188831869947   -0.69448535782417   -0.92420130069950
O           0.02548369694433   -1.43759317577173    0.33138587149088
O          -1.23592975719450   -0.08937195294681   -1.22334335902138
O           1.12455851941335    0.30559605064318   -0.90933233918218
O           0.35434364349951   -1.69888333582235   -2.07683596845199
H           1.22553483352041   -2.06455832000799   -1.81707705191354
O           2.52019108570317   -2.02985059715074   -0.61952606541545
H           2.60867495740553   -1.06937122607936   -0.67840406951218
H           1.90487192205772   -2.17637699632982    0.11116033308023
O           0.44491159986986    2.55055499615863    0.19542499765276
H           0.81394641109583    1.71397733991288   -0.19726863908041
H           0.54482028722715    3.22663321805535   -0.47828231571457
O          -1.33990550956525   -0.28080421977012    2.20744999460862
H          -0.75446825593867   -0.77452279929148    1.57203720848966
H          -2.04714300061030   -0.88564653550996    2.44159449143518
O          -1.84263606835014    1.53804489027743    0.53129021769398
H          -1.72589657226475    0.89760701528538    1.33635781132611
H          -0.97127905633124    2.09510721135580    0.48556828419665
H          -1.71196705516570    0.87394380479280   -0.28799810096443
