    19
        -40.92120575
S          -0.17410563594759    0.75171687756797    1.14225403067815
O          -0.93916830132753    0.25492386307771    2.25262377438057
O           1.10307080755124    0.06100331632615    0.96262230444979
O          -0.89727478023389    0.84983982424715   -0.11539424853017
O           0.21533935807302    2.26061529514725    1.49380185275249
H           0.25609237445055    2.27638571588227    2.44523227030358
O           0.88724812423604    1.77317995601333   -1.79508011534033
H           1.40201106200723    2.44337413835696   -1.34169111317511
H           0.10510720147486    1.59522229310997   -1.22342920575724
O          -1.06494109427266   -2.16734926343896    1.13908136746056
H          -0.99431246815423   -1.31362658998333    1.60826432968610
H          -1.72884865695742   -2.67762206884010    1.60761051546092
O           1.48655056704487   -0.68067068563939   -1.36593082489188
H           1.39587221248171    0.24929169907842   -1.76059797866917
H           1.44531405964898   -0.46300668619263   -0.33651112459873
O          -0.87576845091376   -1.48160445920125   -1.42717996703122
H          -1.19799663039244   -0.59596175262455   -1.17339151343730
H           0.53525055135585   -1.14144679545944   -1.51726074335040
H          -0.95944030065033   -1.99426466720983   -0.59502361033829
