    19
        -40.92071444
S           0.99029172504229    0.92572172237608    0.59853985149439
O           2.13048497327116    1.28099415246426   -0.21473607593128
O          -0.27224800945028    1.40570088429692    0.08590662110414
O           0.92930447885822   -0.52859092232642    0.84522718303232
O           1.21469963143962    1.59006532232397    2.01443754114033
H           2.16273675099981    1.60868581265706    2.10991255837650
O          -2.17332435160689   -0.34245581381931   -0.39909027533335
H          -1.69024053372080    0.49567169125816   -0.21349383581735
H          -2.21938599549536   -0.78017817606871    0.47697482799547
O           0.86917789669167    0.71419021533085   -2.43756964100654
H           1.49894247514949    0.96828249125120   -1.72211222863676
H           0.19241456293790    1.39746914256030   -2.42807344606578
O          -1.37940163190276   -1.35301795048282    1.93513809862439
H          -1.25525114179456   -2.21860657017252    2.32728622854086
H          -0.49035130937753   -1.02465732296977    1.69446319126595
O          -0.09783388583205   -1.34308330700472   -1.30333893464200
H           0.41500883578053   -1.18300419768182   -0.42880989083863
H          -1.10271406344517   -1.00284521256119   -1.01825538549361
H           0.27768958247190   -0.61034196144278   -1.92240637780787
