    19
        -40.91833240
S           0.90530199448625   -1.33520295807363    0.61747834074228
O           1.42740301522808   -0.82423071839965   -0.65972923753992
O           1.64550119110586   -0.82335490539960    1.74385554760884
O          -0.53028812660797   -1.15576559995577    0.70801276919623
O           1.14903927758641   -2.89993986181523    0.58112159935603
H           2.08189888020394   -2.97968481954323    0.75567141372384
O          -2.10938081743001   -0.78402367208117   -1.31273821881444
H          -1.58531144940462   -1.08534011777337   -0.52710843072050
H          -2.87918267096343   -0.32766034209205   -0.96678389915317
O           0.03983950909666    1.24930366012406    1.95726925910222
H          -0.75156105295377    0.71184667070449    2.05429464335464
H           0.76949487596562    0.59395050300040    1.97562514611674
O          -0.14148356555003    2.49610585665755   -0.33667613256230
H          -0.09315190353046    2.06049385760071    0.55961406412453
H           0.60687839542500    3.09413851802993   -0.38072713013367
O          -0.07644596121096    0.57798545180428   -2.00015895023127
H           0.62881584131445   -0.05685439332173   -1.48909074705265
H          -0.96182121431295    0.07617801403291   -1.88261200750142
H          -0.12554621844323    1.41205487647475   -1.39731802963317
