    19
        -40.92136408
S           1.29519848180548   -0.12401809912515    0.47866526530078
O           2.26398673552768   -0.97243571663670   -0.16985476305890
O           0.79714386635625    0.95128672496681   -0.34919421599384
O           0.18286875558230   -0.89193526538138    1.06551506828508
O           2.02363485466146    0.55531584952821    1.71527882231124
H           2.69102310949464   -0.07598681076853    1.96881694438496
O           0.70097586004907   -1.14964532262920   -2.28420973452665
H           0.81509723956886   -0.27216463274452   -2.65983966321559
H           1.38588783319432   -1.22089958594035   -1.58112258873398
O          -1.34529068789922    1.11943796668683    1.97345364140936
H          -0.80048922886686    0.32657642722671    1.80962985368264
H          -0.74588164201323    1.78816110100865    2.30902641455684
O          -1.79157974422760    1.21830163359461   -0.65195874625839
H          -1.97960905101517    1.31731354311660    0.30749916487429
H          -0.82034553248480    1.37410083945475   -0.69577254498193
O          -1.40674922669227   -1.22147666955284   -0.84742184979996
H          -1.73271080190832   -0.17640143536409   -0.84288800090079
H          -0.67791308844644   -1.28752061635327   -1.56367820081373
H          -0.85524772265571   -1.25800994106003    0.01805513346619
