    19
        -40.91893380
S           0.70352807077291   -1.58553473602655    0.06072130017648
O           0.84950983152781   -0.68560905906597    1.21518946715811
O          -0.40095213040155   -2.49711031365301    0.22054290781104
O           0.71300633862524   -0.84245170260863   -1.18388535497894
O           2.02053265635932   -2.47138915632221    0.04763530734689
H           1.80979447083060   -3.17759474005091    0.65094002599479
O          -2.02399332453226    1.50226597489035    0.88709545178701
H          -2.41086515243992    1.21183131894880    1.71538391271255
H          -2.10417253308067    0.73368512768184    0.26001900532791
O           1.24548220627417    1.67977362358511   -1.44315034413719
H           1.04978607209590    0.70758692260297   -1.47309914070557
H           2.17712421000185    1.77358148982091   -1.64996280996184
O          -2.00729728263812   -0.60429084459521   -0.67364053286020
H          -1.49026847240221   -0.43718572188869   -1.46740835243648
H          -1.58479026590145   -1.39199929285515   -0.27456980200209
O           0.49201981624428    1.73701199124055    0.98014826597188
H          -0.54369745292373    1.76050673983206    0.96866003401441
H           0.70393444605989    0.70062952938757    1.14492927349044
H           0.80131849553775    1.88629285907036    0.01445139527227
