    19
        -40.91792404
S           0.55397007693574    0.95357619265803    1.28092183894138
O           1.46419743798552    1.17470608135284    0.16969669614670
O          -0.69837268174295    1.66986544067227    1.11185408093688
O           0.35359319022729   -0.46241359422298    1.55132804304334
O           1.24441730992743    1.55014622979362    2.57537313159745
H           1.19311138018289    2.48823582522389    2.42094668241578
O           0.95063839825466   -2.08986771896505   -0.34855484496355
H           0.91134701969284   -2.96871501363555    0.03345112655435
H           0.87740167323923   -1.44978027333212    0.41201406260402
O          -2.16936884821956   -0.33355449147644    0.49338681991083
H          -1.76785113801381    0.55740373053999    0.68967227429835
H          -1.77370709546049   -0.89573920775451    1.17025515591872
O           0.32191888516526    1.07531718334700   -2.11800325517887
H           1.04317980002973    0.95792630013906   -2.74057309860774
H           0.75428709709736    1.20958203505807   -1.22430526107025
O          -0.97152462120064   -1.01304139379099   -1.60070662365625
H          -1.57704698213104   -0.73154081002140   -0.77657780506237
H          -0.50354527943219   -0.13022653756678   -1.91347308195998
H          -0.20664562253347   -1.56187996802013   -1.18670592186839
