    19
        -40.91873241
S          -0.28618962790427    1.54001444941217    0.68731719752432
O          -1.41622535965349    0.74789546521505    1.15179119729326
O           0.97459874021524    0.87891990115407    0.97788836779627
O          -0.39384777706356    1.90292375760042   -0.71976283388897
O          -0.32382055576409    2.89313031113472    1.49321770273456
H          -0.46513500894372    2.60602568859936    2.39006966953994
O           2.15377977288862   -0.66354011433948   -0.86534445712976
H           1.88813980570778   -1.41434209735015   -0.28662703588733
H           2.09295987907265    0.09937080279159   -0.25690940341106
O          -1.64365369390308   -1.26824252975133   -0.41420945040487
H          -2.56331314769279   -1.39628666118071   -0.65422173651836
H          -1.62696624068438   -0.50840313255417    0.23750728500048
O           0.76130365326202   -1.87515917191680    1.03326278720074
H           0.76571344584158   -0.94816539253015    1.32488602473364
H          -0.13714230839551   -2.05714867194503    0.73826600875896
O           0.01886227619262   -0.16019339895973   -2.03344128691325
H          -0.65030677467058   -0.73601510663081   -1.53540140969035
H          -0.14721604700689    0.78736850618417   -1.61829173646210
H           0.99845893849347   -0.42815258494696   -1.64999688028365
