    19
        -40.91966065
S          -1.42404938810779   -0.64247880286232    0.70082722933453
O          -0.45932431190472   -1.66604939790234    1.07202946270737
O          -1.26469405089685    0.55322118816030    1.54292159901001
O          -1.39435652577861   -0.31458819604674   -0.70289805531095
O          -2.85426585166081   -1.21362434474258    1.02692166167849
H          -2.79629335803262   -1.41680428963825    1.95542239133306
O           0.01751155023315    1.78816944209161   -1.69881370374367
H           0.54988434135788    1.05051961958384   -2.08533729939409
H          -0.85067290727193    1.37473927746491   -1.56147294215982
O           0.97977391253357   -0.64277461809719   -2.06625775773054
H           1.58254863668945   -0.85177150936693   -1.34339853258402
H           0.09052269287717   -0.85054270830663   -1.73528822668266
O           1.86296755911645   -0.67537739947732    0.64192624614663
H           2.47570437136660   -0.98011822159975    1.31384976212659
H           0.99664498265169   -1.14614367187943    0.81631027939214
O           0.76450812336608    1.65878710938723    0.67791482389024
H           0.49304859505625    1.83798915370925   -0.34701260885117
H          -0.13027973015753    1.29367294915656    1.12213784194541
H           1.36082133856332    0.84317441036446    0.67021780888391
