    19
        -40.91833231
S          -0.57714165060514   -1.55780726588017   -0.47365569482960
O          -1.53049213489223   -0.81000658223009    0.36105409295385
O          -0.89996743667809   -1.46219801030707   -1.87546473268965
O           0.79204953001336   -1.21298892653154   -0.14556158460940
O          -0.75480213861717   -3.07801738766414   -0.06475022827080
H          -1.56090767063543   -3.33045494854688   -0.50463454923368
O           1.55498595996932   -0.14169014391741    2.08645454257667
H           1.34859166134822   -0.69613047382508    1.29087934382837
H           2.37893228516651    0.31123306202463    1.89550011585720
O          -0.08396315935975    2.49952247847438   -0.35127854825469
H          -0.82460152446836    2.98728802480938   -0.71620624915674
H           0.19061387923744    1.84901114459700   -1.05575570322646
O           0.57297445222433    0.70199697072480   -2.13792494529553
H          -0.07118338981447   -0.03504573282915   -2.20045475909503
H           1.37908488280152    0.27600600099438   -1.83268726325495
O          -0.64196896522759    1.06634108882180    1.67012931730078
H          -0.42056728905363    1.72295778550565    0.90785785663942
H          -1.10020552590124    0.23674915819578    1.15686910991837
H           0.24856824446896    0.67323375752577    1.98962986881605
