    19
        -40.91039653
S           0.46608784405659    1.63299114540993   -0.92516597320054
O           0.57621556510324    1.84351472305101    0.53448589644759
O           1.60150443458332    0.88119403978834   -1.42058422788346
O          -0.81855110744551    1.08642500339055   -1.28097788546197
O           0.55485304712153    3.07234954593447   -1.56067999618692
H           1.46872267911012    3.31267856983351   -1.43896744155844
O           1.50766876495314   -1.37190960936571   -0.15772903807972
H           1.57232625277338   -0.56199236476655   -0.72927973760527
H           2.40536468105651   -1.67852581839850   -0.01582368939760
O          -0.88756093121029   -2.81017430734330    0.48267267531996
H          -1.61206673725152   -2.22819168432750    0.23480439831302
H          -0.15372524768710   -2.60557386130128   -0.10474777046907
O          -2.18491041722575   -0.25435924410111    0.46925122628412
H          -1.76032298423838    0.23474852398428   -0.28173856610018
H          -2.90773947560149    0.29474613965231    0.77766615743679
O           0.08238664928574   -0.26572784514076    1.67491347602887
H          -0.87795121794265   -0.41186827555597    1.37275755012131
H           0.64190074956578   -0.88973967578630    1.10169244947457
H           0.32579744100122    0.71941500508711    1.26745049651015
