    19
        -40.92343668
S          -0.61517238825422    1.46686620874516    0.56158777332330
O          -1.19124882003461    1.56428747489178   -0.78043635527979
O          -1.36733609651196    0.56503730207402    1.40771461801675
O           0.80107431512023    1.13905810937240    0.51642633661730
O          -0.71504377654400    2.90773007894528    1.19075320168571
H          -1.65208347315869    3.07612550901372    1.18029094542199
O          -1.08855223772362   -1.76596175186930    0.25372454755485
H          -1.39283147820155   -0.98123877788434    0.76912034187345
H          -0.17760991755180   -1.91962659745521    0.58110786927956
O           1.77738894842394   -0.25318395870150   -1.54047759121420
H           1.59679460957660    0.45790811766044   -0.89099758169269
H           2.13841888690782   -0.98040137632825   -1.02150824275366
O           1.41330542493102   -1.36602908039169    1.14655561375964
H           1.59373659478481   -1.51321532333401    2.07600096830125
H           1.23143621481962   -0.40501726536501    1.05064940833838
O          -0.71706307297150   -0.59423317039740   -1.91393070932346
H           0.30848007822198   -0.53291703308410   -1.94366815402394
H          -0.94087591927963   -1.21601908130472   -1.07345371367569
H          -1.00281788252360    0.35083063540878   -1.56945927620115
