    19
        -40.92079088
S           0.41583055173087    0.07153468954695   -1.42530896076081
O           0.96371686658802    1.37761387684913   -1.68608589371767
O           1.29248844931813   -0.74746570361929   -0.58569944648498
O          -0.94409259807895    0.08671214074973   -0.90452191829272
O           0.31614516796222   -0.68215147413644   -2.81327191908257
H           1.18626218646838   -0.57493552322013   -3.18463602570095
O           1.34359633502011    2.33202099243039    0.74884318071968
H           1.30459185361948    1.99827464825903   -0.17369123916826
H           1.39799020679354    3.28745344880896    0.68490133012678
O           0.24797051405590   -1.37730390496728    1.56821068884812
H          -0.54795369779592   -1.87662627903773    1.18434859068040
H           0.81964200482572   -1.18215505847815    0.70444768811332
O          -1.76264847047102   -2.15339381686622    0.18732574823352
H          -2.66819155722738   -2.03046958891487    0.47912694136631
H          -1.54783227102498   -1.38565028808556   -0.39344815445757
O          -0.70843838782038    0.92363659129515    1.61565198758256
H           0.05858406864966    1.53515456183017    1.51400330035385
H          -1.03323503226914    0.80196928860180    0.70049848074244
H          -0.13442620034690   -0.40421862104270    1.77930563087788
