    19
        -40.91892623
S          -0.93592546632826    1.03443139239258    0.33528163866392
O          -1.14354812144957   -0.31095126030350    0.81025232409593
O           0.50296578329896    1.33778531216894    0.21855905378333
O          -1.64212059684372    1.36087161507664   -0.88484794569138
O          -1.47788682744252    2.00451729563275    1.46035327809420
H          -1.55708254843663    2.85019660453469    1.02873429175091
O          -0.69708454240376   -0.36366060557832   -2.58196423053530
H          -1.17752406357072    0.25805603467618   -1.97710789853533
H          -0.70314755771714    0.04546935259842   -3.45007919755861
O           0.81934916035282   -2.22051105895061    0.55542602758300
H           1.14053802792982   -1.77127174083799    1.36994390614311
H          -0.13347232334523   -2.03679815391904    0.56278750423322
O           1.01256321590891   -0.33266070081301    2.43618688268732
H           1.44193780899258    0.45433035131655    2.08809224255901
H           0.08934849184000   -0.26040356392852    2.14136009534875
O           1.40969338909338   -0.50780462053136   -1.16891116808685
H           1.25309942783339   -1.32249800177570   -0.49917798005863
H           0.65032297614057   -0.55030204777060   -1.85408129804547
H           1.14797377614846    0.33120377602829   -0.59080751644668
