    19
        -40.92136397
S           0.80843589916756   -0.23165982438846   -1.10260173713397
O           0.29618054098681   -0.15015742996006   -2.44782481618479
O           0.79572804114672    1.07389699050548   -0.41927582475664
O           0.17924934740877   -1.24530874033965   -0.28634772392388
O           2.34315868348052   -0.62433232697779   -1.21076380707684
H           2.61712642152830   -0.26509441658420   -2.04993806186764
O          -0.83396478703710   -0.55405958344414    2.02839427083248
H           0.00943554806547   -0.20064676637820    2.38840768449833
H          -0.52966949861655   -1.08647250769029    1.25797927330299
O           1.67490772950832    0.34318984924284    2.00918568575272
H           1.48753375644336    0.72730604920408    1.13184516549822
H           2.34669459674284   -0.32586577203727    1.86760445962656
O          -2.16888577547984   -0.17589759633762   -1.51578857268353
H          -2.24664814632098   -1.09718777646463   -1.25263144995652
H          -1.33179612842568   -0.12391838598286   -2.03059007202889
O          -1.53324680706742    1.26170285475932    0.49487082819969
H          -1.97750526045962    0.75829736221999   -0.27805200369917
H          -1.35615524504776    0.51753211886273    1.27870128487170
H          -0.58057890601792    1.39867590180186    0.13682543671711
