    19
        -40.92139814
S          -0.72827417835271    0.91340931398825    0.32210741427151
O          -1.40779792540836   -0.27170665276749   -0.19203278008288
O           0.21722367101772    0.53986950634487    1.37275787865746
O          -0.06993704185771    1.66552438569657   -0.74311999445060
O          -1.79271105985211    1.86364914701228    0.94159268138048
H          -2.19671769717493    1.30938403732076    1.64029565771040
O          -0.19433026700822   -1.53745915723004   -2.10771111723726
H          -0.78139901499849   -1.08237045023073   -1.44780553040689
H           0.00476750828639   -2.40163070526638   -1.74065297521489
O           2.40768048771328   -0.40593667945750    0.38316230295970
H           3.13046214973847    0.08424693855517    0.78081602484498
H           1.58014770161768   -0.09485851769252    0.84580307024574
O          -2.17570721802716   -0.27772225527829    2.42823421719074
H          -1.22527286920133   -0.22240768341737    2.59320875209665
H          -2.25356564770740   -0.72258643994275    1.57347395651416
O           1.57708477257827    0.25077264390736   -1.91398580451026
H           0.93946063944374   -0.52781795827238   -2.15475501985412
H           0.89836337673446    0.97018550103269   -1.52147831983889
H           2.07052260245816   -0.05254498430085   -1.05991040426729
