    19
        -40.91941560
S           0.71789990677208    1.26164958152061   -0.71507046900038
O           1.03424968804079    1.33498447525369    0.69978598097082
O           1.41964631807820    0.14027015203598   -1.35145287553533
O          -0.70360711897619    1.23602175270003   -0.97712063048656
O           1.28358912059883    2.56611911616658   -1.39179333454310
H           2.21100817964596    2.53193051742020   -1.17896501229615
O          -1.41051225508651    0.52491922399068    1.75916230892159
H          -2.09728982415077    0.50546943231811    1.08956473632493
H          -0.70999519622638    1.09394779445079    1.40522623459118
O          -1.76995566893279   -1.12837188654827   -1.02629843304384
H          -2.09321963192992   -1.31790479761064   -1.90900573645999
H          -1.45642732857047   -0.18697595694893   -1.03916149292346
O           0.77065031938546   -1.01609860209704    1.93373475059370
H           1.14962846062914   -0.15866632238658    1.64589540875082
H          -0.13768091555565   -0.76797628073444    2.19500357834306
O           0.54881642061363   -1.95723210957432   -0.36284491673658
H          -0.43397206091544   -1.81317222787759   -0.59736090780782
H           1.01976775166520   -1.15159380761518   -0.84900331567669
H           0.65740385492551   -1.69732005446609    0.66970412601321
