    19
        -40.92315429
S          -0.86078611574512   -0.31450675760300    1.42905089951837
O          -0.45077587638185   -1.69588706528244    1.16359326236059
O           0.29761833871400    0.57769674502725    1.35186840481427
O          -1.94536520957001    0.13777429952682    0.59987205724881
O          -1.35347239744899   -0.30529769343461    2.92476067672240
H          -0.75002071362087   -0.90970005507967    3.34549669691610
O           2.27040863636860   -0.02464659613416   -0.31815760467059
H           1.71708109029806    0.18277203301565    0.46682123674752
H           2.24561480486502    0.77248018242538   -0.85806618108631
O           0.26820513469994    2.05967123973607   -0.85267628184444
H          -0.23079450358559    2.87375650026002   -0.77146998536239
H           0.22342431173720    1.62436933921033    0.02760305372363
O           0.55035659163987   -1.71913422248092   -1.11254970754249
H           1.37238064627697   -1.13591338015135   -0.90631124488822
H           0.12982028423737   -1.86976799055616   -0.16847620871682
O          -1.09270885504324   -0.00808657161264   -1.87708074664773
H          -1.65494785125775   -0.00828479807692   -1.06919857410383
H          -0.58251361578356    0.82625587331081   -1.79509745490089
H          -0.15352469039472   -1.06355107211087   -1.57998231827828
