    19
        -40.91893409
S          -1.67435826391987    0.32398587086467   -0.33047592228814
O          -2.21571717312661    0.89657897118462    0.87587203615111
O          -0.63282691625017    1.17393286801797   -0.92739430049389
O          -1.22273233603278   -1.04842550780437   -0.21213097482095
O          -2.85811209836846    0.30139313224577   -1.38803484955308
H          -3.35764962163620    1.08169983613854   -1.16728694433719
O          -0.16390267768411   -0.12410866901329    2.18487420250247
H          -0.94490033667790    0.37186010693064    1.86533471651418
H          -0.30009641753091   -1.01662760896310    1.85289290535956
O           2.13696106378177    0.83857571992670    1.37331968452554
H           1.30955352679160    0.44850238667343    1.76469227540940
H           2.12677287384859    1.76978882489702    1.60320838669149
O           0.96701652628940   -2.01686306963999   -1.19986631991664
H           0.09518923974510   -1.76714062024401   -0.79701906292374
H           0.76763207648915   -2.40821742855593   -2.05231187754376
O           1.70049531302074    0.40970207462980   -1.08020798696962
H           0.69860547073646    0.78669321666536   -1.08764041738509
H           2.00064251650062    0.58119637171145   -0.10357207535560
H           1.56742725402716   -0.60252648565419   -1.17425347556554
