    19
        -40.92174069
S           0.61235891261126   -0.16119192503821   -0.63340446794418
O           1.06062437366165   -1.22341571432579    0.24223460231298
O          -0.85521147348454   -0.34665486712608   -0.97184778286045
O           0.85203600410788    1.16185899848886   -0.13633237669233
O           1.31794934917356   -0.31682669210504   -1.99800378319282
H           1.36049208547678   -1.29297455329889   -2.17004736983084
O          -0.05851477665406   -0.04048367559174    2.40410487383736
H           0.41624490382569   -0.61993770295416    1.78555797464002
H           0.43659657288294    0.78270815326698    2.42486236879275
O           1.43566695896194   -2.90032139779273   -1.77193019201754
H           2.30775905355968   -3.30301122703684   -1.77439902207744
H           1.25454981593612   -2.62145632401652   -0.85522011889452
O          -1.14131088394366    2.88772222315207    0.40256215617561
H          -1.33410837770281    3.40113397940152   -0.38367876545011
H          -0.31470788482662    2.40178443103882    0.21991415946155
O          -2.19447270147945    0.50231041228350    0.92236727431476
H          -1.59249158818263    0.23710234661475    1.65733570821805
H          -2.04612124490312    1.46967143745602    0.80927402788853
H          -1.51733909901675   -0.01801790241076   -0.17334924668923
