    19
        -40.92136365
S          -0.51248107144221    0.81919636138620   -0.99465820849185
O          -1.28826293416172    0.04718013008108   -0.05009240398114
O          -0.61548686497616    2.24681154855100   -0.82080245185502
O           0.88673579620374    0.35842510708087   -1.02344440616447
O          -1.08681053970836    0.48302643772548   -2.43628376030735
H          -0.93130884029951    1.27675918063912   -2.94032131980680
O           0.50959332394114   -2.29314422391274   -1.20387661428678
H          -0.24347487361722   -2.42540481542485   -1.78219616997834
H           0.74838426709120   -1.35025726765919   -1.28275351471546
O          -0.20179879858400    1.96609145040982    1.76698692598533
H          -0.33524999217030    2.25787610642929    0.83671675377717
H          -1.04649403670151    1.59668373772692    2.03924238438647
O          -0.08606467657541   -1.81287557472454    1.34835454070282
H           0.23019825485404   -2.31762126263652    0.56668000227279
H          -0.77737479417083   -1.22921355730778    0.95951875170392
O           1.49360512022765    0.09470373703163    1.39691127767572
H           0.91261330765434    0.87167344884627    1.72394441507359
H           0.88599606875146   -0.80882349199961    1.51775098991150
H           1.45768126365540    0.21891295774030    0.37832277805720
