    19
        -40.91965978
S           0.34176498860718   -0.43524329552536   -1.62058643323601
O          -0.02398060193192    0.92098505986503   -1.29536270555929
O           1.56487377156602   -0.87368524504481   -0.96606189209074
O          -0.75813235440754   -1.37445938663752   -1.35233368226730
O           0.60011026429319   -0.50038490292600   -3.17204627183960
H           0.87312721974696   -1.40287157817105   -3.30600593309624
O          -1.80620226480151    1.54624228617333    0.66716977097458
H          -0.98360280347284    1.89952381878311    1.08631488439991
H          -1.59094229623745    1.57180177534851   -0.27947075226919
O           1.08770704358537   -0.86254429156682    1.55054506021858
H           1.36513235101597   -0.87303746777074    0.58856270363502
H           1.54195175751086   -1.59565190296422    1.97023245446624
O           0.76108477148833    1.93806552775067    1.14290182620630
H           0.78110746875539    1.75778586402180    0.18861112748181
H           1.12346149964590    1.15039584520734    1.56452056234225
O          -1.42701675614006   -0.90081486122795    0.97442105281173
H          -0.50176213773255   -0.92335108098820    1.37968140454263
H          -1.69972239698939    0.13712087591859    0.91596991075213
H          -1.24895954447115   -1.17987704027388   -0.03706310745890
