    19
        -40.92123232
S           0.04023609756656    0.43236018071779    1.13103895730788
O          -0.70349795065915   -0.80804335828081    1.22292908251937
O           1.29733055300365    0.16795288271620    0.30251096356525
O          -0.69314797442308    1.54390402663965    0.61928878133267
O           0.61454262736809    0.78247105499333    2.51952275055596
H           1.06516233351571   -0.04821580188786    2.81040551776979
O          -1.57201970524643   -1.26158318391733   -1.26796411653594
H          -1.82426546971215   -2.18277017231203   -1.35689934722883
H          -1.40229084710755   -1.10944925302853   -0.31791257325269
O          -0.62197360794719    2.37434914483300   -1.94079965530960
H          -0.65664215557808    2.27154315925362   -0.97151044103094
H          -1.53390447302422    2.37287329996911   -2.23962832024949
O           1.48027826484262   -1.67280484161909    2.54346532723681
H           2.13541628878091   -1.67040813879649    1.83956055807509
H           0.61575924327341   -1.78839880586705    2.11695774308369
O           0.61019697903726    0.04333606141835   -2.06478854010694
H           1.07585515775647    0.11415720072125   -0.76551046845356
H          -0.18998547199821   -0.52069361025889   -1.96931539984180
H           0.26295012058437    0.95942016467097   -2.21135082943672
