    19
        -40.92136386
S          -0.65686710388010   -0.51893771398527   -1.10590914890666
O          -0.52651503128423   -1.29085333921258    0.14270231340377
O          -2.02744442516303   -0.17997836474091   -1.39845309669041
O           0.24915970732745    0.60734427016397   -1.11068467374413
O          -0.16467549503632   -1.50247123292655   -2.25084803841467
H          -0.95768825603726   -1.95103267735201   -2.53044737774899
O          -1.90991964980362    1.81108831470428    0.32312965610508
H          -2.14187632647855    1.10622067260904   -0.32342805163627
H          -1.36236174600844    2.43167284445426   -0.16595400639465
O           1.75237016915642    1.02880575599031    0.99464779785338
H           1.35251171156805    1.09849132673285    0.09778774543537
H           2.19064040214551    0.14989468365626    0.96454814224042
O           2.14552720567672   -1.51032841496605    0.28591971533343
H           2.45824501655906   -1.63790433363318   -0.61134092880339
H           1.17524110532869   -1.60767813675736    0.25001610949111
O          -0.46788611476973    0.46044778077169    1.93745320851377
H          -1.09918874231115    1.10844421494709    1.45717641433538
H          -0.55526346879939   -0.38530487810632    1.36074798145404
H           0.54599103181274    0.78207921764979    1.68293622817368
