    19
        -40.91966035
S           0.61327004847454    1.36905641304004   -0.82601157543111
O          -0.75744670853772    1.35764859930678   -1.31292478010559
O           0.67193559216607    1.88061123869514    0.55215764412667
O           1.27210292340334    0.09258638617224   -0.95038732777395
O           1.40971877844778    2.40383893813187   -1.70506971165661
H           0.92465795919215    3.21308907139810   -1.57577713401323
O          -2.05896024759946   -0.24956186698509    0.19757840250622
H          -1.62276986252095    0.37433919028773   -0.45292098273236
H          -2.94990587598129    0.07946496357287    0.33081804577600
O           1.41077966033975   -1.70618817322183    1.08868210328634
H           1.89054667478375   -1.12273361209887    0.47819567524434
H           0.80938860538373   -2.20551405749312    0.48364960526544
O          -0.27495493490361   -2.18888252933189   -0.88502176164382
H           0.23278914739425   -1.45070213826976   -1.26031005459514
H          -1.13646770447285   -1.82235603688969   -0.65494077332262
O          -0.17441038569873    0.02328745010256    1.93824488466468
H           0.22704617604764    0.88192589212393    1.45484354293897
H          -1.00789099300564   -0.16899613266175    1.40029806823859
H           0.52057115709744   -0.76091359588036    1.69889610922607
