    19
        -40.92021781
S          -0.64335445565562    0.49928400689264    0.67572382131422
O          -1.13928161158131    0.19691933629731   -0.72638816470066
O          -0.08799634111044   -0.70968722007437    1.25817584985376
O           0.23249381939873    1.62787549814379    0.67792366169355
O          -1.93394584008442    0.86077483305972    1.44337738132775
H          -2.38160559831794   -0.00070249149335    1.63449582797385
O          -2.44928359194192   -1.63209964309235    1.98583106100173
H          -1.50259039344510   -1.62951412994630    1.74783667350482
H          -2.50309816433985   -1.84351662279340    2.92104072875109
O           1.70483462284129    2.35474956173837   -1.44908560902171
H           1.30258703200769    2.19468871133720   -0.57434559283431
H           1.31528304991610    3.16605831689443   -1.78028761060223
O           1.88476283281396   -1.57657725438823   -0.34808706710572
H           1.83118099828439   -2.53401184192910   -0.36684684733077
H           1.26881280406794   -1.27517760354969    0.34659868598975
O           0.81623713761926   -0.01593425312990   -2.21445043792339
H           1.24882679661447    0.86656616532935   -2.10439377972355
H           1.35784897254641   -0.64344972926552   -1.68203959687942
H          -0.32171207962802    0.09375436998134   -1.44507898528156
