    19
        -40.91898893
S           0.22450881726411   -0.37478431276018   -1.01138375018847
O           0.53989713809032    1.03520510796086   -0.91380003574803
O           0.75646317942244   -1.11393270176370    0.14239910494347
O          -1.21618723162312   -0.59975074618418   -1.14982875143750
O           0.87971652884494   -0.96797728015751   -2.28985742675609
H           1.83206642362199   -1.02526089397417   -2.06346607638284
O          -1.10307315026475    2.69138544837435    0.18897933368363
H          -0.43978340670135    2.17253531640791   -0.34195969709692
H          -0.61444191327284    3.07039321598672    0.92315005735909
O          -0.69123609999166   -0.50004987500766    2.20514113386688
H          -0.90736673179014   -1.32868296034737    2.63808994836324
H          -0.05793927269223   -0.73094379447310    1.47307678693098
O           3.13935770342255   -1.27795965137828   -0.97129406244732
H           2.43002837439072   -1.21302049706114   -0.30227857960579
H           3.48093878342424   -2.17409340523130   -0.92533157268270
O          -2.39448927864400    0.58027286385196    0.66058665268897
H          -1.83208206154735    0.17217099232483    1.41442467108123
H          -2.00987084089975    1.53487180043279    0.51426291828384
H          -2.01650695105373    0.04962137299944   -0.19091066485489
