    19
        -40.92136357
S           0.97923572094381    0.51306048138929   -0.83773135381850
O           0.68261110537919    1.53846105145253   -1.80691059402017
O           0.82565074230340    0.99238995524622    0.54743149945545
O           0.25597398256443   -0.72241984290145   -1.03757008236399
O           2.52121495438888    0.16400372412794   -0.98314586622237
H           2.91803818295019    0.97745869927824   -1.28168232912167
O           1.32687158828552   -1.28086836999892    1.88444512665062
H           1.27114251150101   -0.38474768729130    1.50237168157887
H           2.02281063875855   -1.73146421695480    1.40301983977350
O          -1.89641881748960    1.10389616263418   -1.48798474603223
H          -1.98924348297692    0.26254154212786   -1.94347936524969
H          -0.99038004664334    1.41862758469275   -1.70848968210159
O          -1.13240677678106   -1.71096126811802    0.95306809419791
H          -0.69665703447927   -1.59837235309407    0.07743164938392
H          -0.36591277599977   -1.77922419340774    1.56431480433323
O          -1.62284733315917    0.71695750094625    1.01927397503938
H          -1.92602173342470    0.92024218226619    0.06236602611651
H          -1.55475006218391   -0.37307353053877    1.08899426189592
H          -0.62891136398121    0.97349256818778    0.98427706054522
