    19
        -40.91885145
S           1.16888098784676    0.28205622435970    0.24880964275407
O           0.12291631761057    0.83029621932405   -0.66937000067199
O           0.60078398212882    0.10887833322658    1.56906742944882
O           1.74339176344734   -0.91830767988624   -0.30631767585757
O           2.28571243429182    1.36230405644241    0.31066679787485
H           1.79896433586098    2.18410122449797    0.52355818663252
O           0.43305167367996    3.24987938644679    0.34277176847332
H           0.53231358865101    3.92058646262544   -0.33687730604424
H           0.05297046653578    2.46281840788889   -0.09217395958488
O          -1.69996321256574   -1.04301861466203    1.66657326184255
H          -2.27073511274363   -0.44874021711795    2.15829491241928
H          -0.77791233535893   -0.67140315796296    1.75090842167051
O           0.13187170549661   -2.65501604999990   -1.35284916431175
H           0.43016875038980   -2.78612664575817   -2.25536864846183
H           0.83463722852153   -2.11197498743966   -0.90691314309948
O          -1.62158319221325   -0.91093905882908   -0.84669365899924
H          -1.03164249369710   -1.71632594834011   -1.11994831152935
H          -1.80563059283288   -1.03634204452459    0.16829748762162
H          -0.92819629505184   -0.10272592029143   -0.85243605016373
