    19
        -40.92343667
S          -1.63166478182672    0.29994471705583   -0.30588627169931
O          -1.34511452243166   -0.56495200851818   -1.43043413074085
O          -1.84517077705345   -0.46002946537957    0.92675531847599
O          -0.62861867610517    1.33835300575565   -0.13054379132055
O          -2.98803595739387    1.04253186164309   -0.60689695954627
H          -3.60658398852784    0.32341034784221   -0.68958802939871
O           0.37438415736533   -1.34006332268420    1.61037097276942
H           0.84495262983835   -0.44635935781545    1.80079667352643
H          -0.61877612160850   -1.05665318167559    1.44605543318702
O           1.74503259911024    0.82783836520660   -1.20467362993985
H           0.84382164349951    1.10320320537435   -0.92599573552576
H           1.85144760424475    1.13192194970433   -2.10702208286969
O           1.30150120125474    1.02903166578405    1.68599354583777
H           2.04317774597956    1.11540165338641    1.07693250352809
H           0.52494705566513    1.36301765402065    1.19041444833855
O           0.92559681173612   -1.69744358708564   -0.79346399594323
H           1.47888173375543   -0.91857157676741   -1.01196811390680
H           0.69070359948258   -1.62533817807850    0.62986697978896
H           0.03951803303906   -1.46524375792698   -1.16071313449955
