    19
        -40.91898038
S          -0.97211005926261    1.29968102358696   -0.18554996803354
O          -0.38396757604263    2.33292974379715   -0.99670458164155
O          -1.20970458074394    0.05867466010329   -0.94392412367740
O          -0.23610580817447    1.00669029048044    1.03385817943237
O          -2.40316476610867    1.80278483448536    0.26723904692760
H          -2.71348824730724    2.35366856682760   -0.44655172406702
O           1.08459286504996   -2.42473820726307    0.61728322719524
H           1.73861335648843   -2.19187031626000    1.27950795733591
H           0.19431505968787   -2.18049314847096    1.00105785642950
O           1.98306057732262    1.25678091535152   -0.39669698323856
H           1.46953634552942    1.20737051487513    0.43115834383292
H           1.49571189926403    1.93095072721024   -0.90006211897720
O          -1.18050728965344   -1.42851678713130    1.44557324335179
H          -1.77974636026337   -1.44804435987870    0.69308778191849
H          -0.87589240086427   -0.49853069926207    1.49127154808101
O           1.04120166955392   -0.88204940135052   -1.38100200843619
H           0.04135046553663   -0.54511402032516   -1.31559335843888
H           1.58040321883264   -0.05524436351581   -1.07088901307253
H           1.12590161114923   -1.59492999327259   -0.62306330491095
