    19
        -40.91274152
S          -0.79002994419518   -0.08719817824726   -1.04031719543907
O          -1.17006090731938    0.72831302036482    0.13049060390889
O           0.08546547973945    0.67761368675923   -1.90752640478919
O          -0.24982050739490   -1.36876535492685   -0.65811669713450
O          -2.11799427065632   -0.36281265447624   -1.83132148297772
H          -2.48218489461437    0.49266597026576   -2.04054040253305
O          -2.57689727477028   -1.54584922763140    0.92288862625649
H          -2.34667593138043   -0.61187605405836    0.89936847122972
H          -1.93525449723994   -1.97495385920152    0.34960879060146
O           2.14073876898629    1.58309782481515   -0.63767965615582
H           2.28958889397850    2.48349884264468   -0.93407925009255
H           1.42874445808531    1.21113401593681   -1.22767537366465
O           1.35804132733524   -1.42401085190653    1.40167455612564
H           0.71502782628764   -1.56850689203254    0.66501504161273
H           2.21687383721496   -1.69343076957256    1.06827522923454
O           0.87785455804529    1.04988117883308    1.48355017340573
H           1.49128978640671    1.37220087348596    0.71795890724159
H          -0.06715927192920    0.98504073873805    1.01233393448702
H           1.13245254341930    0.05395768020428    1.62609212868029
