    19
        -40.91899939
S           1.04866429547290   -0.16672972671532   -0.59068485476528
O           0.21297942482844    0.50396076558442   -1.56429559058435
O           0.76207623333531    0.37344877125387    0.77214455857965
O           0.89904511870187   -1.60400993501887   -0.60203643897974
O           2.54001029756012    0.15692072635938   -0.87616734190019
H           2.61263744335122    1.11132082274280   -0.66550006668422
O           2.24847831195413    2.50784884559297    0.27540134629312
H           1.55301765620366    1.93246112034920    0.64505479936146
H           2.85373859943187    2.70803612569498    0.99332947152451
O          -2.27835257041635    0.75378625753168   -0.95747787531539
H          -1.33477995347997    0.77947741741684   -1.27976814042677
H          -2.74008886188987    0.15076607866429   -1.54450833498255
O          -1.24260711542952   -2.56983795024391    0.45919575612880
H          -0.96844188963797   -3.26759608449491    1.05785398926374
H          -0.42365705236273   -2.30257793485211   -0.04199586014726
O          -1.58869457786128   -0.19803212334340    1.26755716480236
H          -2.02255210793025    0.24319915867430    0.42977667906368
H          -1.56468444149534   -1.20653492778088    1.05461243749738
H          -0.56678883033971    0.09409259257531    1.16750831125933
