    19
        -40.91274136
S           1.28172122736836    0.03009352989525   -0.26542987730000
O           1.10651086624382   -0.12161558826273   -1.69718955127708
O           0.57897982591491    1.24283733888222    0.19854163839041
O           0.90521343992363   -1.13874131269097    0.49113769338441
O           2.80930203375609    0.27933233114339   -0.00121888055186
H           3.04043515393849    1.05305691410850   -0.50744055144169
O          -1.39017197562850   -0.12839863186009   -2.35041120783081
H          -0.41107499682947   -0.21856261664771   -2.18799728493254
H          -1.48121438249473    0.39533712719713   -3.14925947394128
O          -1.61479518688420   -1.39266973218233    1.13854117577190
H          -0.63171250757532   -1.39287749747879    1.03663318244978
H          -1.93463406065988   -2.17391071981673    0.68171021114504
O           1.49046977387247    0.48015036736689    2.72321416522629
H           1.52252954445523   -0.38129380771728    2.29743619960955
H           1.15815947957926    1.07963340601351    2.04795249014698
O          -1.84617028138288    0.81749652827273   -0.05288598235923
H          -1.81943563588429    0.49148691664677   -1.03203781192945
H          -1.91579068581593   -0.04910192634310    0.51368042746464
H          -0.84832162190131    1.12774737347559    0.11502343797285
