    19
        -40.92136328
S           0.78580188287009    0.68454312611434    0.91483412304754
O           1.38622556721213   -0.05979036096715   -0.20653226882682
O           1.00492740358728    2.10550589840969    0.80716062788328
O          -0.59717602787882    0.30769885755555    1.10056034550104
O           1.56782657614182    0.18709932724790    2.20387827735935
H           2.30725879381131    0.78434316948846    2.27347449942621
O          -0.96715721144364    2.28717492328709   -0.93041765644468
H          -1.72407492478048    2.17280430556878   -0.34899076381598
H          -0.19521343830967    2.40099107222394   -0.33056546912274
O          -1.66556064521504   -1.43256816813638   -0.54192356535081
H          -1.01685664597944   -2.14357773573453   -0.34294689821811
H          -1.53365111127234   -0.80883127219135    0.20821997716753
O           0.56671183033180   -2.54377430844160    0.39689340765358
H           0.60611506961378   -2.61793125485639    1.35194438749061
H           1.02703819720973   -1.71332105188042    0.17168228267295
O          -0.34842451864349    0.06217010686326   -2.01510379690160
H          -1.01663377168104   -0.64529481815566   -1.51391492210381
H          -0.68343471135512    0.99608261959989   -1.76090379530065
H           0.49627766584336   -0.02332443606350   -1.43734880215916
