    19
        -40.92136407
S          -0.38588148040357   -0.48536578036033    1.24026504552594
O           0.97076620614995   -0.40312022859630    0.74780890863494
O          -0.67182605372333    0.39902258933759    2.34260587328769
O          -1.35317640994560   -0.33698578625018    0.13864611962614
O          -0.58801738812395   -1.96909791189500    1.76825718397852
H          -1.24251787878385   -1.88523838293947    2.45592513472231
O           0.45965904105323    2.39322592751688    1.04415744238384
H           1.38623358575673    2.14983563238813    1.12354106864652
H          -0.02026626909367    1.78465653134978    1.65073125901026
O           1.36301761816538    0.03946184000935   -1.80452123235125
H           0.86444820096163   -0.75172915076399   -2.10626166049439
H           1.51408618718038   -0.15487550451602   -0.85115359740380
O          -0.29641768192046   -2.03973962747890   -1.64725074775282
H          -0.83036089729794   -1.51402103579944   -1.02204672855342
H           0.03634610611725   -2.78773028962787   -1.14839406137869
O          -0.46691262690136    1.59463902223587   -1.19506618959747
H          -0.08705231504688    2.09838695537120   -0.38829213231952
H           0.36437114168203    1.01361150937356   -1.60711898405250
H          -1.01649909583585    0.85506369063645   -0.74183267191388
