    19
        -40.92174067
S           0.06658632315912    0.88250138945878   -0.14355723263728
O           0.81343964936556   -0.06411894289158   -1.06523505368059
O          -1.35498136223381    0.81990410151238   -0.41011682041844
O           0.42779526190744    0.64539230755528    1.22328552410427
O           0.58569784925598    2.27500597825328   -0.56236174524971
H           0.09343270728826    2.50881061801820   -1.39144405151585
O          -1.61318590152106   -1.47877344281711    0.99524740761356
H          -1.75243799117955   -0.67447783507763    0.46853548224389
H          -1.33856626934390   -1.17794815382056    1.86545175781485
O           1.95692264302961   -1.43773335320407    1.97576507764532
H           1.43351043700424   -0.62166356971313    1.86305050840652
H           2.87829447207920   -1.17364577630341    1.96317570730429
O          -1.17629805598638    2.49005940655575   -2.45651748764737
H          -1.54556026617998    1.76951803325432   -1.91307190114609
H          -1.79275175242740    3.22476529908057   -2.40277494437197
O           0.62559017600211   -2.34718713045926   -0.13928847667829
H          -0.28681077447757   -2.28118411368737    0.22943148464105
H           0.75844381899958   -1.10022826195692   -0.74009665593161
H           1.22087904525494   -2.25899654375715    0.64052142950188
