    19
        -40.91941486
S           1.18042164012237   -0.56567367438539   -0.94491805156098
O           1.81932173547376   -0.63556393054926    0.37496685803208
O           0.07733422873109   -1.50475983058054   -1.03731985529380
O           0.80644058938069    0.78492640315769   -1.29989164451338
O           2.27575212931051   -1.02256371342698   -1.97985201214442
H           2.47690267556670   -1.91024310035057   -1.70031945026289
O          -0.05235405611549    2.24428417066827    0.66666909636126
H           0.26928634639130    1.77421244132224   -0.14580259048193
H           0.56197432086721    2.96357596686669    0.82381647018072
O          -2.04846116008343    0.28682218242338   -1.05332792372602
H          -1.74526468002477    1.18620535070952   -1.19328842049028
H          -1.32977116664951   -0.28621162076696   -1.36193572900249
O          -1.59100088117387   -1.32177262275299    1.03888138091610
H          -1.00794973686035   -1.70646396897101    0.35081463007459
H          -2.15502199989954   -0.71383672654139    0.52235479096243
O           0.16746895889847    0.12029805636520    2.05866745755625
H          -0.65160091974272   -0.49879828029107    1.75925329354128
H           0.95344904953839   -0.23957401996822    1.45857197719067
H          -0.00692705372887    1.04513690706938    1.66265973266006
