    19
        -40.92315432
S          -0.64935840288816    1.49642575815862    0.47199365363680
O           0.76355884460899    1.13742708418327    0.60913870396685
O          -1.00973876832387    1.58822488898879   -0.94533092192675
O          -1.50355748578677    0.62397863982136    1.23188335412932
O          -0.81353259725156    2.95593690107733    1.03996936188673
H          -0.51338612594922    3.49532124019498    0.31504489229100
O          -1.26108926210613   -1.76069601145811    0.16432110141961
H          -1.60675106258038   -0.95861268846525    0.61804171415367
H          -0.40580260103025   -1.92365030344450    0.61700077059007
O           1.88330012777338   -0.39609845049632   -1.24562913601662
H           1.64199194483333    0.32909275353226   -0.62830121117691
H           2.15425399762171   -1.12601253236176   -0.67870623267953
O           1.08259404924384   -1.37694976421372    1.40535918834383
H           0.98212083390830   -0.41195123860771    1.24715096189141
H           1.06521396710792   -1.49288261942273    2.35639065009065
O          -0.54817042150193   -0.64072504506178   -1.94539467420357
H           0.47469699125857   -0.63087611155952   -1.83621282140210
H          -0.91469989615458   -1.23472240427264   -1.13567772173328
H          -0.82164411279529    0.32676991339252   -1.66104162326102
