    19
        -40.91966060
S           0.95055070933617    1.05853820767225   -0.95292830050862
O          -0.34641473404051    1.71094779516735   -1.04521690736444
O           1.56619184118410    1.30681561886878    0.35970541611959
O           0.90311024352077   -0.34886703825795   -1.26290460580972
O           1.89215736573103    1.74720966054729   -2.00989112038273
H           1.86732346736519    2.66381840251914   -1.75296544978807
O          -1.44741339731094   -1.71347271738591   -0.79005813664277
H          -0.76727575622826   -1.22968963799732   -1.28674304482659
H          -1.96181264689667   -1.04053550673650   -0.32951629532201
O           0.69625643931715   -2.27413234238321    0.64624170414133
H          -0.19330583774076   -2.38118693300277    0.22919196151253
H           1.22029486822366   -1.87856260956044   -0.06990327009273
O          -1.82843078294157    0.65005584148146    0.75393144992426
H          -1.32747904952228    1.10006080796098    0.01293140594634
H          -2.41029509943009    1.31426461464238    1.12819500607088
O           0.32970290213962   -0.15758788601680    1.91411941041641
H           0.94795279060616    0.49442486128165    1.34549516104697
H          -0.60163853114195    0.10570517902897    1.62393486165488
H           0.51052519780527   -1.12780632779165    1.48638075390382
