    19
        -40.92315432
S           1.61707244645172   -0.29855396115923    0.42307071969038
O           1.70266175057166   -0.78919487443780   -0.95493458109601
O           0.99699194431525    1.02766212075302    0.44698089976310
O           0.96937212392289   -1.21278070555347    1.32471161936018
O           3.10841162423962   -0.12102841632043    0.89659776136370
H           3.53975345552081    0.19492790326400    0.10870045397450
O          -0.82097237918154    1.62522695106774   -1.39202152594199
H          -0.03123438305074    1.59454145554522   -0.80836764643391
H          -1.55896159123761    1.81516470153753   -0.80303736060628
O          -1.48585414682856    0.95084531651751    1.38919402612464
H          -1.54603321124406    1.01634774842149    2.34327215311206
H          -0.52952302747467    1.01800169489595    1.17171975729941
O          -0.62300404548699   -0.87063664268945   -1.83058105623297
H           0.39269089838135   -0.92346362730510   -1.59220269304568
H          -0.80740763264305    0.14145038086734   -1.82311330951271
O          -1.46917382838117   -1.54509786495702    0.41477652235106
H          -1.77205937629920   -0.69134563581466    0.79209665782153
H          -1.09043298571164   -1.25115848669940   -0.94741903967059
H          -0.59229762580658   -1.68090806798533    0.84055665167651
