    19
        -40.92079113
S          -0.78373372362654   -0.47539425598384   -1.16943395103347
O          -1.18325676672219    0.66011390181211   -1.96021706905390
O           0.65239565382323   -0.74554959551414   -1.25960995741972
O          -1.22015948817322   -0.42093176190280    0.21897474604226
O          -1.50448538658463   -1.74683521575586   -1.77697588746205
H          -1.30754004736459   -1.68818770018432   -2.70666623286424
O          -0.01596145559460   -2.08929728240338    1.84575976327747
H          -0.61169367744974   -1.61232728040430    1.22082889397379
H          -0.39265367863536   -1.97797570977715    2.72096774693228
O           0.35340008668040    2.58222364862519   -0.99736818544033
H          -0.04681217547617    3.42271329437833   -1.22815529838248
H          -0.17952117568601    1.89263395879373   -1.44959723563118
O           1.80823778252698   -0.55060149312276    0.92095400986635
H           1.45823222450755   -0.66019738327848   -0.06676560042357
H           1.27848061447483   -1.26452162330079    1.41098267680517
O           0.33880279349908    1.41267616330743    1.36429350452952
H          -0.44187993840076    0.87870370352511    1.11253651511089
H           1.33289036660934    0.36256019944646    1.20160464941447
H           0.46525799157975    2.02019444177411    0.59788694176184
