    19
        -40.92267744
S           0.87501178683126    0.27773307597726   -0.54024485433735
O           0.18273201229289    1.51760876057842   -0.27224128608928
O           1.68547592585167   -0.17493880514368    0.58075100312299
O          -0.08790787833181   -0.78487637172584   -0.92367339362858
O           1.79468450955395    0.49331094854026   -1.77417271187061
H           2.24825458884445   -0.37404495435183   -1.86530507523550
O           2.46240484809520   -1.98922181903039   -1.25296401191796
H           1.57604991796019   -2.34117927514632   -1.38413877452292
H           2.46323649727376   -1.61523547810978   -0.35733515974618
O          -2.41747930023758    1.70029439913083   -0.15547893913811
H          -1.43722804307573    1.81260325467820   -0.22317406901481
H          -2.76544812712585    1.82381653313300   -1.04072595706491
O          -0.19339184010558    0.16230922269724    2.37724224705824
H          -0.24768887209287    1.11967777050206    2.44306091539439
H           0.61555514351024   -0.01691203138988    1.84107043192208
O          -1.92352518339786   -0.64093758513777    0.69911773169598
H          -1.16634862782794   -0.82092874318841   -0.06093256966843
H          -1.33799017533540   -0.40063255129518    1.51252158688394
H          -2.32639718268974    0.25155366926524    0.39662286616383
