    19
        -40.92129518
S          -0.40637966165064    0.75732442907379   -0.84099838334043
O           1.00662258604420    0.59424121457091   -1.16837362037722
O          -0.97112925213659   -0.57191256927230   -0.48976955749999
O          -0.65540958130925    1.71703044637582    0.20212276737075
O          -1.15926729334154    1.22269175232307   -2.11894117325829
H          -0.92761547213394    0.53525718930231   -2.77858061584698
O           2.18478810098156   -0.40447078578070    0.93009186999263
H           2.87397178858647   -0.99212492397573    0.61352637152940
H           1.83861782039016    0.07789127928170    0.13676017216093
O          -0.96746217405598    1.00661167476592    2.68981746912734
H          -1.90447175996907    1.09305269084526    2.87789446881976
H          -0.82126282558935    1.44086938331311    1.81255461390287
O          -0.04065023137158   -0.94712998337869   -3.10487123410859
H          -0.50701337724384   -1.49906528334330   -2.46778173788012
H           0.68566908535077   -0.53659293538497   -2.60822676816372
O          -0.10356985990056   -1.16776301717097    1.73061214636095
H           0.88196678004480   -0.95786889146913    1.54995761170404
H          -0.45628563431014   -0.36605399460844    2.27776825438741
H          -0.55111902838131   -1.00198766543589    0.75643734518870
