    19
        -40.92025498
S           0.75952222842067   -0.17982093820927    0.46789889016401
O           1.28444993015706   -0.43904475983687   -0.87136458117834
O          -0.09543702299503    0.99708989523675    0.47445320977462
O           0.04161069403929   -1.33779658380662    1.00966745653402
O           1.96333834400413    0.05860820579382    1.42295462113553
H           2.64531293571358    0.51879001009410    0.88281170157413
O           3.49439567484664    0.93236767368414   -0.52431740628723
H           2.74605779320715    0.47833103863831   -0.96139068778091
H           4.27759492621975    0.40721579525702   -0.70486645635618
O          -2.57397335590107    0.81942526895592    1.21238112756840
H          -1.63614102436966    1.04618316613154    0.97476607646033
H          -2.60731283328062    0.78782422893330    2.17042828963680
O          -1.07893068780461   -0.17016549710456   -1.98070610170831
H          -1.21732265458576    0.76957949984883   -1.82681258541638
H          -0.13990564284059   -0.33314010556847   -1.72905432007576
O          -2.18676587207305   -1.35177357654888   -0.02774854493203
H          -2.55574612337911   -0.53737125505321    0.48403538548585
H          -1.88025958212075   -0.96829267818530   -0.93551457921886
H          -1.24048774725467   -1.49800937826097    0.46237849461929
