    19
        -40.92159004
S          -0.12991243441324   -1.01096332611097    1.06793345627437
O          -0.66471104510444   -2.30418862051551    0.73909840030065
O           1.08884033509007   -0.64815334386520    0.36042663343671
O          -1.13240724195694    0.05612378534168    0.94938304363753
O           0.28255962539986   -1.05623178406923    2.59732079845915
H          -0.37289076299001   -1.61847880112259    2.99882573849879
O           0.34342252398843    0.16397656914081   -2.06945572943180
H          -0.46532012762171   -0.39717642546106   -2.13633049383189
H           0.86985654291153   -0.28052218559894   -1.37604382599614
O          -1.74819670295653   -1.34422297275754   -1.49632048695088
H          -1.38650481991048   -1.86769344191970   -0.75472393634962
H          -2.47694486601217   -0.84362303295854   -1.12207931067500
O           1.92310610192073    1.80501731266292    0.73706155057283
H           1.74609255975853    0.83505969992642    0.76037385934592
H           2.76237754524721    1.92058260898914    0.28694027037296
O          -0.33572651057015    1.93446864405089   -0.45518807183100
H          -0.07585623857375    1.30405023693277   -1.28162783386116
H          -0.77735895423129    1.22651240644801    0.19040459355017
H           0.54957446904099    2.12546266887380    0.00400134364458
