    19
        -40.92120544
S          -1.02192901935327   -0.91853341074973    0.11030058296395
O          -1.06073765849402    0.26011816737834    0.97683590294106
O          -2.09678288120621   -0.95889304569024   -0.84248546267598
O           0.30705020326202   -1.11809831145519   -0.44422446013532
O          -1.23100955228407   -2.16132284297711    1.09161755008582
H          -2.17577175398693   -2.27912981772758    1.12172550485495
O           1.88960608863647   -0.95144647655122    1.63584104250516
H           1.47137731591786   -1.41205502833820    2.36563749688446
H           1.38525733627421   -1.20280548300172    0.82799412266431
O           1.11142493024655    1.43440600068897    1.11762190818526
H           1.62053858535287    0.62197947747633    1.44814715316180
H           0.12458270466140    1.06628876436320    1.12538668405683
O          -1.26987397021026    1.32607423124846   -1.94580779015597
H          -1.70076320799577    1.41497324463071   -2.79858704536503
H          -1.64201711195929    0.52231659972736   -1.53401712516909
O           1.32266486903145    1.18290770027976   -1.35583445320576
H           1.30566037050936    1.47693620342126    0.06854544597740
H           1.21262402108550    0.21603341672537   -1.28161098850954
H           0.44809875053670    1.48025060054244   -1.68708606903094
