    19
        -40.92267746
S           0.77530211600700    0.17575520481873   -0.70877605432620
O           1.43695368342820    0.12462110094822    0.57512224662203
O           0.52867463870472   -1.14256505607031   -1.27417363679279
O          -0.50194957927037    0.92485975711938   -0.60790558624313
O           1.67500974089553    0.98350462955454   -1.68528783172496
H           1.17586258813016    0.94103321621565   -2.53111597368894
O          -0.48486448221854   -2.15230534243271    0.92142599285781
H           0.28742311566349   -2.23456063082449    1.48775975970005
H          -0.13001441193886   -1.93659724162351    0.02596075780884
O           0.32021904379020    0.94912290271434    2.78375318624095
H           0.45362704293573    1.89502589538819    2.87040356941276
H           0.90050076594750    0.65303529285350    2.03944818107077
O          -0.23198456253014    0.36223192598783   -3.37586406491469
H          -0.11382742102673   -0.48912549337113   -2.92512435675762
H          -0.92226919333381    0.81967312799609   -2.88472331326600
O          -1.62068368509712    0.06798098406919    1.40255687269773
H          -0.98780285330275    0.45932122781305    2.10799649449304
H          -1.24334927579985    0.51024020282913    0.48519368871523
H          -1.31682728095484   -0.91125170400114    1.29335006809989
