    19
        -40.91873663
S          -0.58151906861242   -1.11119770233744    1.16553757548603
O          -1.78813767379860   -0.73821775385486    0.44027531894834
O           0.47107971585915   -1.53423607247150    0.25869783534390
O          -0.12171228264895   -0.06437365174061    2.06989016125595
O          -0.97188033381933   -2.33810405394484    2.07376424593165
H          -1.54171548954459   -2.85027686707741    1.50872047049475
O          -1.29969156447730    1.48273318125341   -0.74394116006630
H          -2.04039638453683    2.08203922687790   -0.63456108134039
H          -1.57042408073800    0.62059846881149   -0.31340369901397
O           2.34755414051236    0.18841598496855   -0.58036874464634
H           1.88687245844601    0.12575485915638   -1.44856657422529
H           2.03535058661214   -0.61506157171871   -0.12066299592269
O           0.34345286527737   -0.34348637361254   -2.22641470277974
H           0.20508310884020   -0.97790829755495   -1.50315159756094
H          -0.35430534024431    0.31453942411533   -2.13940760322508
O           0.84271661682091    1.73139366187426    0.65880551134568
H           0.49751824913677    1.04944412487013    1.37748915623824
H           1.59375655248459    1.16469660964060    0.11955196946769
H           0.04639790448503    1.81324680275864    0.03774591422360
