    19
        -40.92044628
S           1.56828251076542   -0.16720955341042   -0.24740891158580
O           1.36887204910475    1.20809494829891    0.20391521650236
O           1.46424754519211   -1.10891577046446    0.85004635218530
O           0.69997055368307   -0.48816767359497   -1.36704118903390
O           3.04933056505849   -0.27254259861298   -0.79582764859613
H           3.57378822223867   -0.37878737702031   -0.00788848191119
O          -1.39614631376203   -1.83559649061440   -0.67787899659807
H          -0.51355891838588   -1.46510074129636   -0.94114593080473
H          -1.81205746706556   -2.15630610818244   -1.48041928704663
O          -0.80881664443713    1.76986268324962   -1.05750134350307
H           0.05863507221443    1.74889296635367   -0.57313257573652
H          -0.63384099797668    1.22808182007425   -1.83566896987891
O          -2.06938135447479    0.28349371477298    0.53797901969464
H          -1.94195778826188   -0.63096546168311    0.08828723746643
H          -1.66098732876929    0.97656200766375   -0.13797975985223
O          -0.21284658246613    0.29818569832500    2.22194121134687
H           0.26371356746568    1.11282422670175    2.01326604128063
H          -1.38483150689590    0.28172084406468    1.34511408904307
H           0.38758479675632   -0.40412714462472    1.86134392703849
