    19
        -40.92136399
S          -0.60059254194629    1.15934958452118   -0.46549905833891
O          -0.84833091812517    0.53032914250795    0.81221965392180
O           0.05799903734570    2.43910138694466   -0.37963305635288
O           0.09224243812311    0.23413217396815   -1.37969512877666
O          -2.02029691754783    1.40918624420768   -1.13139263245311
H          -1.88835824541736    2.17496751585370   -1.68314380239970
O           1.82364670939650    1.42483105122080    1.29333538474870
H           1.28078880493882    1.95528182101376    0.66690564832594
H           1.28652188438303    1.34330089094244    2.08638875317760
O          -1.41753361348730   -1.96061387805768   -1.04919415732897
H          -0.90146553129531   -1.18628846781784   -1.34306856725837
H          -2.32259686461611   -1.65715690200019   -0.95995846600589
O           0.00492222126003   -1.91641164311169    1.20339069863879
H          -0.49780682449730   -2.30121094687864    0.45165969697807
H          -0.43521363511904   -1.04492581544496    1.32955759369411
O           1.88473438444190   -0.79747024440584    0.03999032071750
H           1.27753086192658   -0.43236408279180   -0.70373806529686
H           2.04737896496687    0.03874419295923    0.60788514096732
H           1.17642978527535   -1.41278201366905    0.60399002302379
