    19
        -40.92218930
S          -0.20072049668726    0.90571133632371    0.69302897168519
O           0.70265448677858    1.23023812668953   -0.40648756546668
O          -1.57174547412747    0.71782406219479    0.21861443989577
O           0.27168427334033   -0.26115050179478    1.43097186648615
O          -0.23566593039756    2.11798895851047    1.66868085699455
H           0.70176214973515    2.18951361670652    1.94478719989089
O           2.32415296180620    1.51774658321397    1.77447328497471
H           2.02731217240093    0.62317673147340    1.98728386539952
H           2.28454057322510    1.56747805439645    0.80993859792381
O          -0.44750297200597   -2.52562836245792    0.39380629352559
H          -0.08019412129716   -1.71249931616652    0.83452454240983
H          -0.96501440087664   -2.97928498542032    1.06252350936798
O           0.24135282602625   -0.09839602124294   -2.58471854702294
H           0.03487410992329    0.55080370190418   -3.26061451805469
H           0.52817614662521    0.41899944433417   -1.78459087899763
O          -1.67710890462450   -1.18254526550409   -1.35392551586128
H          -1.22525417459004   -1.87768837483060   -0.73398663976045
H          -1.77917571008505   -0.35106035630705   -0.70013945140099
H          -0.93412749516251   -0.85122742199249   -1.99417031198923
