    19
        -40.91146773
S          -0.58195665209487   -0.73486277457451    0.65472071829792
O           0.44296114345512   -1.57839080350849    0.07890700884938
O          -0.05791373172548   -0.00812443164310    1.82101444442238
O          -1.20809908939958    0.16610890380246   -0.28687633112370
O          -1.71628603615134   -1.68281089035645    1.20757129977343
H          -1.24467272230126   -2.36265974065458    1.68042687305753
O           2.41523445670908   -0.06952121652916   -0.63507819583672
H           1.67305024882358   -0.71421645418028   -0.48082302289505
H           3.22732896965453   -0.55596605970761   -0.47785999460024
O          -0.23853319804653    2.57014406871537   -0.63458568482898
H          -0.77041166650763    1.74527836090513   -0.52857495897020
H           0.00116398269057    2.61475473098497   -1.56333634748357
O          -2.35183969558375   -1.93861636483051   -1.65584055344211
H          -1.94049142516538   -1.13705568655591   -1.30903816102486
H          -2.92394120358732   -2.25955462884252   -0.95649536601341
O           1.51520876068603    1.67957852266168    0.95685562829234
H           2.03056274280861    1.05257226392769    0.32280172928601
H           0.87284072345342    2.20978858880828    0.34534954197933
H           0.85579437228182    1.00355360158481    1.46086138224977
