    19
        -40.92011116
S           0.40508520675241    0.34098233625506    0.94870621292669
O          -0.05575051945075    1.35462509254204   -0.02300449400836
O          -0.58910947772019   -0.73107756526597    1.04764627235638
O           1.72285925698609   -0.13788277904693    0.61864535324341
O           0.48176608043970    1.04687311745574    2.32976446087481
H          -0.45530053540328    1.14250060057037    2.60599156498152
O           2.50515287169542   -0.21838526212070   -1.86552104465090
H           3.18093769270276    0.45704897713738   -1.95361858129471
H           2.32412942207696   -0.29995173219471   -0.89545080033277
O          -1.12543503318359   -1.62590653128421   -1.35087954256974
H          -0.90517685381528   -1.41355418400318   -0.40996259305215
H          -2.08235018965941   -1.67687586245134   -1.39951569367562
O          -2.08285797424744    0.61088774581726    2.73204832288100
H          -2.27164879041894    0.10296057421388    3.52443073715774
H          -1.77445868187386   -0.02653351738049    2.05624103456506
O           0.08382777204960    0.41875032653298   -2.27714266711033
H           1.07751513228440    0.15789053258215   -2.28763017653011
H          -0.42680419960321   -0.44413947534328   -2.09067015463990
H          -0.01238118962131    0.94178760598253   -1.31007820112559
