    19
        -40.92343662
S          -1.31753046105385    0.21624702761496    1.03053232949792
O          -1.92377248491095    0.86875968294646   -0.13108712302046
O          -1.35108578939878   -1.22630220333645    0.91769934123598
O           0.01889456638132    0.72454985384596    1.29627305929199
O          -2.19869145350911    0.61964162862317    2.27258790571842
H          -3.05854149128232    0.28556026259139    2.03691139440387
O           2.01096755333327   -0.88421621084357    0.59472361782134
H           1.29880750338652   -0.33634638735913    0.99272657722890
H           2.29849453498856   -1.48879718151426    1.28023187952286
O           1.49467332386455    1.69319306120844   -0.70495972474408
H           0.97434136991969    1.60916425176304    0.12111743836782
H           2.24265514395247    1.09652954273898   -0.59119392426131
O          -0.35242002849937    0.54471016561419   -2.02686555270186
H          -1.11300837360916    0.74786343168055   -1.33843936369473
H           0.44165121420843    1.08853642346463   -1.66629537668364
O           0.15967596716071   -1.73369672236411   -1.15689281906462
H          -0.12116658955986   -0.47613720660718   -1.80968133781803
H           1.00802509430438   -1.60411417635856   -0.68354186705477
H          -0.51196957951045   -1.74514523390039   -0.43384646398412
