    19
        -40.91836643
S          -1.21386520797039    0.73951918695610    1.36703390235785
O           0.14460866763698    0.73682186244087    1.93307450063643
O          -1.36551032369744    1.79642473251840    0.38426209740136
O          -1.60419228943845   -0.56227126208345    0.87693984883699
O          -2.17608275331352    1.08554708902422    2.56816130502364
H          -1.94217613260659    1.98740857727895    2.76555694402570
O          -0.65574492947266   -1.42262479556541   -1.35194222324568
H          -1.04939769168200   -1.12002566021363   -0.48624693070340
H          -1.28880447245034   -2.04364168283323   -1.71615456666495
O           1.84389353998943   -1.91589953344335   -0.52444543907856
H           2.38103106949208   -2.14264958355305   -1.28593172272417
H           0.90888991869661   -1.89136010187222   -0.82693566308445
O           1.88009858904638    0.55829561044838    0.19753960561733
H           1.19819338129394    0.65128404394205    1.02144619839724
H           1.98987391167202   -0.43522110795178    0.02998538695303
O           0.22438907817089    1.18362270733801   -1.57399781632835
H          -0.13705297656396    0.31410471045239   -1.81359204808664
H          -0.43904181067600    1.57373968853241   -0.95036015682998
H           1.30089043204701    0.90692550894775   -0.61439321257380
