    19
        -40.92453851
S           0.57846038507254   -0.72631765197719   -1.20822807804966
O          -0.81183015999327   -1.14796954183195   -1.08086424860644
O           0.66308950364403    0.70591155776800   -1.47241892968568
O           1.38708954986594   -1.13091165423413   -0.07747170719473
O           1.17412112903537   -1.46496609700299   -2.47093037625462
H           0.62384431844605   -1.19062571509165   -3.19876930298726
O           1.67054822766629    1.19216720348014    1.04909759658709
H           1.75851971436837    0.26729172618008    0.71114053837926
H           1.65393360344275    1.72494391293739    0.24515404149234
O          -1.63644419166849    1.41210678129915   -0.50789383211708
H          -2.12724911920923    0.61738150763743   -0.74800387189914
H          -0.77146709256548    1.30257851727973   -0.97913264952257
O          -0.82058956360158   -1.52338384229585    1.49206660530492
H           0.08125576637400   -1.85120181564931    1.58725959373785
H          -0.96173369338164   -1.51426741742172    0.51240505665946
O          -0.72604171992194    0.97644008344220    1.80034050459964
H          -1.20477784987505    1.26292323446177    0.91597483211670
H          -0.81916394162137   -0.06628948326037    1.81524032848351
H           0.28843511392274    1.15418869428059    1.61503389895610
