    19
        -40.92135311
S           0.11685153731649   -1.01934007123708   -1.17703779249597
O           0.77072961889082    0.11990596915943   -1.82256349179440
O           1.00806692167783   -1.71680824158591   -0.27637025369968
O          -1.13878416191272   -0.63118018820509   -0.55429941845138
O          -0.26398335588418   -2.02395117365923   -2.33296411004538
H           0.58572672883378   -2.30666635221072   -2.65667245348867
O           1.44031750948630    0.05044544649873    1.60823287276598
H           1.50082477257617   -0.69442378336475    0.96433933032067
H           0.57425574219855   -0.11121315079339    2.05327802960210
O          -1.47825272455296    1.96137238918698   -0.15114156575412
H          -1.87375523940269    2.36373080189184   -0.92655619442784
H          -1.51403845432585    0.98778518143899   -0.29049394397277
O          -1.01110729629642   -0.78881845182713    2.12880283403811
H          -1.19547147860820   -0.78352292528559    1.16926335435270
H          -1.03675815597916   -1.70762967223450    2.40135076251558
O           1.06962035854603    1.84649179989436   -0.05335138378363
H           1.29031048781452    1.15726148176343    0.76620483450066
H           1.07173714281733    1.20963027071097   -0.87416838895782
H           0.08371004681909    2.08693067986517    0.02414695874634
