    19
        -40.91966026
S           1.47990088981546   -0.48272883137280   -0.71361194289262
O           1.83536045592245   -0.53561818355082    0.69597704955655
O           0.64989502136729   -1.63912595505683   -1.08488411333339
O           0.86383647239639    0.76273512583403   -1.09885708929694
O           2.81510829638555   -0.62790125937779   -1.53464670796853
H           3.16148470339405   -1.46199636091193   -1.23269776987541
O          -1.83054922977315    1.09455224678790   -1.23320218688415
H          -1.64837813854596    1.68426558784548   -0.46158547082180
H          -0.97685498749779    1.08246717494623   -1.69713681895304
O          -0.54884072311087    2.16790185881446    0.81157772611010
H          -0.54724517329444    1.53848812892754    1.54191911314454
H           0.19794020649825    1.91432280657500    0.24490000236510
O          -0.35945168363571   -0.40983977617990    2.00972899390329
H           0.54275919264319   -0.43984740045475    1.57653152315759
H          -0.30096569522315   -0.95992845439033    2.79317612831025
O          -1.57600342965260   -1.13614901667793   -0.14626628717882
H          -0.67597968068824   -1.45456820222814   -0.61501827449078
H          -1.26906781336658   -0.88671807468849    0.78348349545557
H          -1.81294869359906   -0.21031139484115   -0.63938736030905
