    19
        -40.92120600
S           0.09263943694303   -0.22595903894989    1.35771479050491
O           0.63677481729395   -1.23989872041163    0.45389887571770
O           1.09684587187114    0.42580813202590    2.15265327260625
O          -0.81875444328182    0.66440176739534    0.65736560826709
O          -0.84219682545485   -1.03189389216703    2.37159327035064
H          -0.26317891196339   -1.25954731458725    3.09289910988600
O           2.30740918146799    1.34438431799134   -0.04053387016061
H           2.93755225196335    2.01744384974229    0.22500612727695
H           1.92973631919465    0.98208349462970    0.78422398667737
O          -0.16985412169515   -0.99979460748435   -1.87236135264852
H           0.28479045596686   -1.20054813961305   -0.94413338352902
H          -1.15044650402229   -1.07206650595526   -1.62332920893584
O          -2.41505663874963   -0.95758613338943   -0.63882448315227
H          -1.99407374165122   -0.27313187165325   -0.06912531290460
H          -2.62245661777198   -1.69469160910233   -0.06144975788540
O           0.21307109290738    1.45843705247264   -1.68043049824647
H           1.11793973424509    1.51464833676846   -1.30545372635848
H           0.01569157749947    0.04721361976001   -1.97065895115710
H          -0.35643292476472    1.50069725255502   -0.88905451624644
