    19
        -40.92315431
S           0.81428673134358    1.21537509185833   -0.86200052341468
O          -0.52437051827161    0.72858133421117   -1.20080589426077
O           0.78691601520903    1.90512139950569    0.43053309681698
O           1.80278381766800    0.17390724349195   -0.94233880926820
O           1.18551213018441    2.32318421249714   -1.91795973214861
H           0.73014340138409    3.08944606633464   -1.58319352862871
O          -0.01941324273222    0.25347611663625    2.10493656982328
H          -0.97460715364135    0.14278446773986    1.73943837894313
H           0.36095316498743    1.03700542936600    1.52795289456515
O          -2.16297257178598    0.01134646886199    0.76023311677638
H          -2.30382069739947   -0.90444697691375    0.49743403852551
H          -1.73489450843048    0.43566488764799   -0.01563107752466
O          -0.72502158903238   -1.90762857220468   -0.93865658194222
H          -0.63002219134946   -0.95790106212173   -1.17373672996886
H          -0.45839126095616   -2.40114691864962   -1.71553738989732
O           1.18315672268789   -1.57548596989175    0.91265135344542
H           0.47384055796315   -1.97182380273866    0.36234768343151
H           1.67128599442031   -1.00631826050588    0.27513333787375
H           0.52463520758314   -0.59114116514535    1.73919978690551
