    19
        -40.92136340
S          -0.84676800894194   -1.07128709923977   -0.24287285338890
O          -0.83833182053133   -2.24676163759801    0.59220131779035
O          -1.19962485082710    0.14772958084143    0.44960422042593
O           0.41389681288353   -0.90437443695414   -0.98721262903082
O          -1.95538277997186   -1.29953618712492   -1.35646381097049
H          -1.99673921766717   -2.24669972875529   -1.45370989514833
O           0.41590805103863    2.20441745839792    0.29033735315939
H           0.38265469590393    2.26419600872537   -0.68996531899266
H          -0.35930984107510    1.63307240996882    0.49532735383481
O           0.56476854432561   -0.95180183718797    2.40876296177227
H          -0.11008407213594   -0.36754872366101    2.76564266725217
H           0.07881714616642   -1.58931317878729    1.83786356827636
O          -0.06538364220300    1.43414514749930   -2.21504005140035
H           0.14306480428820    0.52406754918802   -1.93137031818773
H          -0.98887360515622    1.42684679806952   -2.47246388809232
O           1.92777500808854    0.27138432449680    0.63178753044661
H           1.49196131623793   -0.27098451154380   -0.12343512426238
H           1.39869427664842    1.22487545269764    0.53566925479976
H           1.54295716289870   -0.18242739904072    1.46533766173371
