    19
        -40.92037975
S           0.42374457973696   -0.99159634544034    0.03254034341325
O          -0.18506655470097   -0.58426827698329    1.28818635087876
O          -0.58005164121494   -0.80423727232649   -1.09105121234314
O           1.66153302023812   -0.34342073885772   -0.26294935346205
O           0.64190433906975   -2.51848992291101    0.07248444592296
H          -0.15933589228615   -2.89382067844869    0.51676539688569
O          -1.43429963441548   -2.89419591328999    1.59432064276488
H          -1.23769426387766   -1.94441868088759    1.69913720907396
H          -1.25253886449537   -3.31375283868185    2.43885780988691
O          -0.59663249040577    2.05320168697892    1.03170699522462
H          -0.37776682361973    1.12560450966719    1.24551220322005
H          -1.36415826105754    2.28098925552400    1.56025632830578
O           1.94268796700896    1.79582679602743   -1.87184314781319
H           2.01587742325118    0.96260280145432   -1.37019933544597
H           2.36246160713124    2.46793858731834   -1.33075689014569
O          -0.68567196244781    1.61427635777906   -1.59839747563000
H          -0.67932550289870    0.23342335037018   -1.38147339428228
H          -0.73679500420162    1.96250121813413   -0.67984060264062
H           0.24112792916346    1.79183612445583   -1.89325630380334
