    19
        -40.92139813
S           0.38606609351839    1.09479004717324    0.34730711571929
O          -1.07053535037961    0.99573871362684    0.26841794044004
O           0.92818566258074   -0.02161574068822    1.11567903795485
O           0.98582621595497    1.17990218811958   -0.98180494632745
O           0.74380639633791    2.41939672344736    1.08005195632327
H           0.32020392165353    2.30288709867445    1.95514873355976
O           1.39926520477375   -2.19512785300405   -0.22501485040548
H           0.80090840115874   -2.84570980249794    0.14910865494293
H           1.34172627750130   -1.39412641209342    0.36017301935027
O          -0.64778714716462    1.21831697621342    2.96745611925580
H          -1.32788500187451    1.13165437882440    2.28652039729400
H          -0.03553511520425    0.48895531257407    2.80034914264236
O          -1.81374807004526   -0.70473232415123   -1.52784998841295
H          -2.43762051298802   -0.25386074108524   -2.10083123317511
H          -1.61213063606440   -0.06605050585824   -0.78809067749749
O           0.60350686438035   -0.90532740009506   -2.24371112515115
H          -0.41818657000164   -0.92176311384933   -2.09702579967228
H           0.86152932568716    0.03683340442333   -1.82305222749330
H           0.99240403014942   -1.56016094974263   -1.54283125933143
