    19
        -40.92079121
S          -1.31859442529540    0.55854616717649   -0.39594329118598
O          -0.48982703412796    1.47551224306430    0.38892088602176
O          -1.29734028820350    0.86174080016902   -1.80374555497260
O          -1.00981711379979   -0.82882249962737   -0.07819422001800
O          -2.80323651182894    0.77483777952035    0.10780194208197
H          -3.02522527240535    1.63881677947919   -0.22499999486671
O           1.28357430437533    0.75207927821182   -2.36074449894865
H           1.37556332093501    0.62753955194119   -3.30725764669594
H           0.32556022399383    0.88899443294825   -2.19505373224297
O          -0.40806537014626   -1.30328618672876    2.43032488504992
H          -0.24327085572930   -2.24349544691776    2.52620237148786
H          -0.82598329798405   -1.18003608549162    1.54544573322192
O           1.36233419856846    0.33109330031262    1.56699738263584
H           0.63420397162612    0.95012729088283    1.12305181585341
H           0.79155725526777   -0.29719763981199    2.12356810329587
O           1.61446251896644   -1.06589622344437   -0.48142152278277
H           0.65320838943685   -1.24950431358614   -0.46816523137826
H           1.72210784895530   -0.43003194699888   -1.22737394331940
H           1.65878812738288   -0.26101729110904    0.73058650675184
