    19
        -40.92115647
S          -0.63775686126210    0.17584391796450    0.82928761279108
O          -1.14276134703594    0.02405585477163   -0.55812216526689
O           0.28172072641293   -0.88914346199829    1.16104579245303
O          -0.04910082724234    1.49767180748598    0.99177885958951
O          -1.87557270482897    0.05882525990898    1.76028678064429
H          -2.43108918492539    0.82495473739512    1.49343926335039
O           2.15385079068046    0.85397714398996   -0.27393316630862
H           2.59744467237463    0.32434353619886    0.39367515596841
H           1.39444323550353    1.27047028343169    0.19910903481776
O           1.01249673020441   -2.74914319713342   -0.51952483959070
H           1.82076524054733   -3.15429623504421   -0.19957750794021
H           0.65262640002427   -2.20661568332916    0.22279650663773
O          -2.59948939160738    2.22439754975327    0.46748344082702
H          -1.66691708485430    2.42984426848808    0.63863294119267
H          -2.61424689157385    1.79307094740393   -0.39330131096002
O           0.81334581459737   -0.60492184023700   -1.88865841203524
H           0.95823310253427   -1.54720814932248   -1.52983039891897
H          -0.13701585257875   -0.32418571292653   -1.41240847370968
H           1.46902344303787   -0.00194101680371   -1.38217911354545
