    19
        -40.91892669
S           0.87949202777301    0.99827189885888   -0.53515479726550
O           1.22556923826823    0.30402964048171    0.68041796462937
O           1.45696358422071    0.43667069056019   -1.73735667042315
O          -0.58268212922058    1.14578269058058   -0.66134009742471
O           1.43893280762427    2.47068605402286   -0.39561487820115
H           1.43622916435919    2.81179717329421   -1.28516174226606
O           0.50538511108744   -1.98059138554761   -1.76091226333903
H           0.98644596985227   -1.11367192893287   -1.77297479430599
H           0.40931373439403   -2.24884016356914   -2.67736284134828
O          -0.60325249446730   -1.29618192131641    1.96591500181770
H           0.33001396977992   -1.15083609450367    1.74297154454056
H          -0.88930016006462   -0.42107815120784    2.31321555012916
O          -0.78017435889299    1.36390667833856    2.14601240566016
H           0.10755823760644    1.22335876586275    1.77637614805064
H          -1.29366705047725    1.72318561890457    1.41654447320336
O          -1.46134934634974   -1.15687654818306   -0.37889173019657
H          -1.18928945659368   -1.32321547745794    0.63874244286176
H          -1.21622548739490   -0.14518101773192   -0.52973555449605
H          -0.75996338147259   -1.64121653245553   -0.94569019164082
