    19
        -40.92218945
S           0.68029067953907    0.55048459351875   -0.75753275665572
O          -0.39516918095363    1.40177679403114   -0.25940779679273
O           1.43335664191129   -0.04001141071045    0.34438766537958
O           0.16985213641117   -0.47683009281003   -1.66541980083915
O           1.65238725279960    1.43223538387034   -1.59452424696314
H           1.95520659658526    2.09098713616194   -0.93548927700654
O          -2.57333173159983    0.11912581248505    0.31713727241428
H          -3.26214578365019    0.48805105718839   -0.23992567715597
H          -1.76981285462973    0.68859069652849    0.17496285697181
O           1.83399526673617    2.63609036531206    0.73847722072277
H           0.86933430120512    2.67943701099912    0.70229863138429
H           2.02839208958165    1.75397999633044    1.08234400100650
O           0.39752740711254   -2.22316299719340    1.28473872901328
H           1.05533474837977   -2.91106814761682    1.16226427198753
H           0.84081066284471   -1.36980160574599    1.02889146571371
O          -1.39514963899268   -1.96848234021850   -0.47386606320130
H          -0.74882179298725   -1.41068485124440   -1.10731684008247
H          -0.75799632563085   -2.21568072300719    0.30355072082042
H          -2.01406048469077   -1.22503666787588   -0.10557035671109
