    19
        -40.91966070
S          -1.19542974169267   -0.38545017172480   -1.16357934509520
O          -0.00716669301097   -0.36873435523182   -2.00248508215908
O          -1.24680694117705   -1.61496428828823   -0.35750669558151
O          -1.33247511207396    0.79461092984956   -0.34641367278955
O          -2.44055209711746   -0.44588463530213   -2.12491879269581
H          -2.27902020105027   -1.23269611713116   -2.63645344292520
O           0.95456787074840    2.13848691995977    0.40318311933138
H           1.63677770245134    1.53444401135401    0.08822336627824
H           0.15760815019791    1.92447650210860   -0.10929182264617
O           2.00443391731369   -0.37961153465303   -0.41740116065513
H           1.27743818058186   -0.35035126236476   -1.10526475830599
H           2.71304028866553   -0.90323375224668   -0.79625291060356
O          -0.49178276264063    0.91150468821540    2.24016438886032
H          -1.23685844715467    0.95503990870147    1.61860857068912
H           0.16211807014797    1.53430832714859    1.83843532911766
O           0.42462577311670   -1.26022075058906    1.42231036760903
H           1.18352452865735   -0.96051420306086    0.82627565316222
H           0.05143270285632   -0.37111985157730    1.89753338702627
H          -0.33547518880601   -1.52009037518627    0.72483352139050
