    19
        -40.92343563
S           1.35444439612390   -0.61035104366370    0.79946847112880
O           1.39303327569104   -1.44394919419661   -0.38335055042864
O           1.91286036588816    0.71909554030827    0.54888741486746
O           0.02562566071710   -0.53303327252193    1.38538638766163
O           2.27771675394700   -1.28178370172665    1.88516599775020
H           3.12296553627658   -1.31556609310946    1.44822644513749
O          -1.98247933336249   -1.08393850793799   -0.26101094573157
H          -1.25868913614092   -1.01781648510016    0.40032902834650
H          -2.24431099266626   -2.00544612627730   -0.28091445335677
O          -1.52933715255995    1.57713077577964    0.88166627161055
H          -2.26862378801968    1.08396401588491    0.50921202619637
H          -0.97813873434996    0.90557400062814    1.33479278281009
O          -0.19185438821432   -0.22131991321831   -2.06836218070027
H          -1.02269234126314   -0.53002899068627   -1.64995961519431
H           0.50634096883227   -0.76282069065342   -1.62882400940683
O           0.27494027014174    1.91928480093313   -0.88090265180972
H           1.05929394101007    1.54412871785730   -0.29960008947062
H           0.05722068955506    1.09272343807845   -1.52310394588913
H          -0.50831598160614    1.96415273961884   -0.21710637349944
