    19
        -40.90976300
S          -1.33901102015596   -1.19080953317307    0.78767607607030
O          -1.69880004717742   -1.12430409861090   -0.61735657960943
O          -0.03870822005383   -1.79841246423072    1.00004181178820
O          -1.44587218101064    0.11128062954385    1.44866991714717
O          -2.41385068997208   -2.10600156525816    1.49128975308732
H          -2.42718934059082   -2.88502504026502    0.94339794168154
O           2.22994361060503    1.13205566078367   -1.65903023226586
H           2.44391923197640    0.45410477613451   -1.01095521350005
H           1.40855792621004    0.86351694697243   -2.08164185302341
O           1.94260429225639   -0.15686700282328    0.89214210779561
H           2.42134128286812   -0.21966769905546    1.72058873041609
H           1.24497130274577   -0.86889199959758    0.91610253393108
O          -0.63079388533690    0.90599954923582   -1.79024408004898
H          -1.32554124830369    1.37630806025698   -2.25467508612151
H          -1.04690043076018    0.07617803515512   -1.42705909831310
O           0.20497415442719    1.67064251078764    0.49955591984119
H           1.04972941843979    1.10995231977638    0.64066814301512
H          -0.02941273157203    1.55759136830076   -0.48926061267453
H          -0.54996142462095    1.09234954609871    0.99008983079427
