    19
        -40.92136405
S           1.32833367837606    0.28201959524151   -0.27951710836417
O           0.26499814643573    1.27308518975610   -0.52110402288984
O           2.24540005283439    0.70346284991727    0.75020282397373
O           0.76748492876358   -1.03446274341842   -0.07442827020334
O           2.14851802542949    0.21915416565878   -1.63762674885945
H           2.83342303981490    0.87261632037716   -1.52722385249930
O          -1.19197906072517   -0.04097020950204   -2.35296725193158
H          -0.66021627873220    0.56825941424310   -1.80682735690437
H          -0.56961050801887   -0.50357070342011   -2.91667366906077
O          -1.83660187079148   -1.31503981612518   -0.10330279025075
H          -0.87141775650416   -1.50770955481870   -0.07087212844163
H          -1.95119920134089   -0.95681117332952   -1.01124051770008
O           0.52517427021685   -0.05177164217318    2.59822905345331
H           1.26199272362256    0.30891051381946    2.05457556728610
H           0.60901307725373   -1.00728620682734    2.53478165022439
O          -1.46641586815238    0.74801873619052    1.21733299465361
H          -0.85009214832971    1.15696162846990    0.50509505680217
H          -1.79201086297759   -0.16668133377544    0.71043664370483
H          -0.79479438715231    0.45181498970866    1.93112993700096
