    19
        -40.92218944
S           0.38249293041198    0.56887366729960   -0.93228309979735
O           0.20892234460009   -0.85765337781177   -1.18678315733130
O          -0.83554877808143    1.15421182273903   -0.38159001402087
O           1.53379037243436    0.81965418715790   -0.06522346863247
O           0.69158002990527    1.27131948389085   -2.28663624580048
H          -0.10825709516021    1.06559990276008   -2.81397905758047
O          -1.67505756368231    0.25561423290184   -2.82625371171116
H          -1.29203298813050   -0.57915592949950   -2.52545753892331
H          -1.96191844518114    0.70088023094420   -2.01801942629928
O          -1.05465489290559    0.91659945620826    2.19109818919195
H          -1.08606988278195    1.01091128490636    1.20105749992677
H          -1.09463328599700    1.80806764108505    2.54402235650138
O           1.18954479637773   -0.23754591152682    2.13873284892308
H           0.27062556831864    0.19533779559228    2.33782976966696
H           1.46945473168385    0.26355354608317    1.24395754180025
O           0.63042403317482   -2.35660151484430    0.88638414918931
H           1.35047519775369   -2.94683001287791    0.65375514433474
H           0.98294685136400   -1.18838349238730    1.78597270092935
H           0.39791607590070   -1.86445304261296    0.05341551963241
