    19
        -40.92218953
S           0.59680402296839    0.47789028958020   -0.86890794043189
O          -0.50838599124051    1.31957141200631   -0.42202950768379
O           1.45337755483342    0.10090078645490    0.25096623647951
O           0.11269051519621   -0.69943256154077   -1.58984159138140
O           1.45115066204913    1.29324342941733   -1.88300715459023
H           1.74129125219358    2.05723139471618   -1.34253274631327
O           1.67643976544811    2.82640872592454    0.24388576241873
H           0.71081996420606    2.79816630550608    0.26710085547064
H           1.95774406813396    2.01840563201578    0.69329186243686
O          -2.55780531985997   -0.00378057936602    0.45669701655305
H          -3.29744001520772    0.23488455085765   -0.10625297407432
H          -1.80544494575064    0.58995083561552    0.18911363077810
O          -1.27116971750414   -2.10211584471852   -0.10279164158782
H          -0.70261976684901   -1.60092918815143   -0.84820782987175
H          -1.92345379925954   -1.35549341602976    0.19466076965957
O           0.62602140159716   -1.98008883596929    1.55782094380744
H           1.32374459697012   -2.63596280903008    1.49525741379083
H           0.99352091381489   -1.14786909219030    1.15471193583108
H          -0.57728516174011   -2.19098102509890    0.66006493870861
