    19
        -40.92218954
S          -0.90874858579767    0.16084142650718   -0.69903396374516
O           0.11117796519435    0.74598510702871   -1.56945635966755
O          -0.64525801429166   -1.25198729427076   -0.44567437769141
O          -1.02978852975606    0.90293865502842    0.55174974787358
O          -2.25857375558198    0.27516949075573   -1.46587685986852
H          -2.89038297649715   -0.12921090610096   -0.83561061490083
O           1.23538167218566    1.68758841316363    1.53916167758513
H           1.19548115520427    2.64537618663634    1.58425080514122
H           0.32617481839132    1.38651570113039    1.26878479537346
O          -3.08295492694321   -0.89467935924374    0.74242949730801
H          -2.63330044606038   -0.16996737906133    1.19678066447986
H          -2.38780063441873   -1.54110214356806    0.56123769396078
O           1.86080794670683   -1.80984478446267   -0.08019895596548
H           2.10348738858278   -2.43487721282416   -0.76678677059660
H           0.87614017171607   -1.68791971752197   -0.15451993818477
O           2.32463502961620    0.63898432358980   -0.48174734919707
H           2.04783894093042    1.10210665664984    0.40194212675577
H           2.31313419095360   -0.37653233989285   -0.28320021596044
H           1.44254860044345    0.75061518193629   -1.06423159169273
