    19
        -40.91990220
S          -1.09352066375448    0.80136248231830   -0.66703345739296
O          -0.88376496887460    0.74757802966367    0.79797658703937
O           0.06910557136242    0.25258361908444   -1.34736687105332
O          -2.33342792410632    0.20048909578648   -1.06206118463126
O          -1.14217344882120    2.33622416811670   -1.02779119557368
H          -0.23283103274021    2.62749033606960   -1.01656489006914
O          -1.28585077023517   -2.21365126803583   -0.96767902699906
H          -1.86030240454625   -1.41702369895172   -1.04017619668052
H          -0.67729973097449   -2.14843565685639   -1.70982092715032
O           2.04318086937885   -0.66837497730625    0.09471172103420
H           2.21375561610183    0.14788128775052    0.60415448513856
H           1.49133049994008   -0.34939382797763   -0.65707709995069
O           1.53031752083409    1.71681452885058    1.25785495691638
H           1.61729396937883    2.05959668194475    2.14877268099413
H           0.59087290719644    1.45499741830840    1.15058577568878
O          -0.02330432257929   -1.57349943609813    1.14138266362308
H          -0.46133323019848   -0.63765317130723    1.17636705972754
H          -0.52188725096534   -2.01284488303961    0.35239336833621
H           0.95983878360955   -1.32414072832590    0.77137156100842
