    19
        -40.92343664
S           1.58467287857277    0.57728942754492    0.01336147192656
O           1.10616247541072    1.19533090312935    1.23151485341269
O           1.22966111517450   -0.83028680130725   -0.07511354712830
O           1.16286742871820    1.31769837545843   -1.17672051930929
O           3.15890500696461    0.63519954051207    0.03434341458804
H           3.33342523873642    1.57031402385502    0.07597749984524
O          -1.49720743646407    1.00403574126350    1.05817202369342
H          -0.56577214288511    1.26170491617300    1.25823668812548
H          -1.53358614100301    0.05600171591864    1.30418987872958
O          -0.88128877052323   -1.57865083378200   -1.52585681781407
H           0.03161306826579   -1.46188968195284   -1.18948100512993
H          -1.35624279468632   -2.02020989772489   -0.81320894969315
O          -0.84287062119887   -1.57802084603564    1.40603279301722
H          -0.61827149532763   -1.87517343829412    2.28880648219149
H           0.00787672135603   -1.36175356550897    0.96417037920879
O          -1.27835377139493    0.93338891281594   -1.42320138437843
H          -1.51528519436050    1.03559178047026   -0.38577878612976
H          -0.26671747701643    1.19796442173626   -1.44386499450821
H          -1.25958807832992   -0.07853470428299   -1.60157948063719
