    19
        -40.92136361
S           0.17219202394760    1.34393584683365   -0.29325271038631
O           0.13211751118195    1.83320030323516   -1.64892054702886
O          -1.12997683459447    0.81598599197458    0.15004562317276
O           1.22778933502450    0.39016209743945   -0.03595189694824
O           0.45075357770373    2.59438254558188    0.64487528106026
H           0.09031276938135    3.33296901243014    0.16239101295973
O           0.33941616644840   -0.63454655041787   -2.55085964182719
H           0.22633243515447    0.33089690953455   -2.39746125837818
H           1.26243809132612   -0.81519101764841   -2.35204144431069
O           0.60651988158417   -1.92729390490345    1.01565907081090
H           1.11689691194987   -1.16469704676564    0.65847754103228
H           0.19218574384818   -1.54641469948466    1.82137247629451
O          -0.46712889177011   -0.07028764697337    2.59593075704297
H           0.15514216505659    0.56332200967688    2.95728465363860
H          -0.83610983672400    0.34215817388535    1.79219256633438
O          -1.14939756761974   -1.54801199926887   -0.69030290149845
H          -0.42256847923277   -1.88784396557523    0.05511821196601
H          -1.35498907314821   -0.60287321547991   -0.34554674665794
H          -0.61192591952035   -1.34985285407427   -1.53901004727265
