    19
        -40.92011119
S           0.69465190848938   -0.53064436960426    0.64581341209300
O           0.27078629768650    0.78480540712719    1.13341928464295
O          -0.47637426079494   -1.26521608425275    0.12385804598284
O           1.74617330630626   -0.45809698153010   -0.33608263391591
O           1.22637344440808   -1.33882432291856    1.86049105741259
H           0.57627240562581   -1.16132825858508    2.57409426358194
O          -1.08149451682321    2.00210429321377   -0.74453921093938
H          -1.86467788698177    2.35156693800854   -0.31429148494741
H          -0.49997253278274    1.65248500890468   -0.02420874532245
O           1.16576717605076   -0.41049619652707   -2.87535082543110
H           1.52780312793577   -0.36042333104015   -1.95500456829590
H           1.46091994044635   -1.25120180792909   -3.23132081741122
O          -0.51249605049242   -0.16142841658535    3.44844819330066
H          -0.40299411547182    0.40185840879730    2.65534028676488
H          -0.11024501069388    0.31164760890220    4.18056664905866
O          -1.19730444552742   -0.22972765212537   -1.97067694785656
H          -1.25060831424443    0.72990446087745   -1.62874308003729
H          -0.31648937154223   -0.28955889245813   -2.49680922174748
H          -0.95609109160548   -0.77742577224730   -1.04500366694159
