    19
        -40.92218945
S           0.44653786844118   -0.85600376305537    0.63805048553170
O           0.02385683047468   -1.31239453673496   -0.68217895017577
O           1.34430020474281    0.28969839477121    0.53309037052377
O          -0.70289613419654   -0.55623104234213    1.49190102410801
O           1.21749782222938   -2.01719255839960    1.33117624917543
H           1.96447477606227   -2.16687335623798    0.71495769937402
O           2.73366936331678   -1.66177523162490   -0.78992196943479
H           1.91107434193254   -1.75283572112954   -1.28901411000959
H           2.75644010264724   -0.73448432133158   -0.51895101611475
O           0.12985428618104    2.57281552260626    0.34387299297670
H           0.68349557733355    1.74604691860586    0.35908410155220
H           0.40727844707245    3.09199968266306    1.10179326259176
O          -2.03234670895348    1.28250111010313    0.51941446538682
H          -1.25279677422936    1.95657348997040    0.42228365580298
H          -1.56120179271366    0.48991214089785    1.04830392478837
O          -2.01045338396570   -0.02231592496647   -1.64123485343538
H          -2.15775822747676    0.85921395500662   -0.41678080164021
H          -1.19877136951926   -0.53662053116154   -1.38261890694787
H          -2.70225522937389   -0.67203421763979   -1.78322761404777
