    19
        -40.92136409
S           1.04292356992535    0.08817444691558   -0.90997279477956
O           1.75964094854371    1.32147186746440   -1.12023410289850
O           1.24938117120417   -0.45444078616987    0.44449058884466
O          -0.36577579959010    0.15658690868414   -1.22716851988585
O           1.67615033635607   -0.99156424944364   -1.88670310471316
H           2.58047536535416   -0.70965603436628   -1.99165838513677
O          -0.12466973182653    2.64342681967649    0.16224224573272
H           0.67495308890669    2.31513618732964   -0.30828771523005
H          -0.82885298590354    2.62289394246833   -0.49178888570305
O          -0.37726217899459   -2.58779655229515    0.34876576292592
H           0.33811965219730   -1.92959083749928    0.43374331086042
H          -0.29956203542575   -2.95129192168373   -0.53497327729165
O          -2.10678212981746   -0.57520064187104    0.58915749412010
H          -1.75169542081714   -1.48659987033781    0.68457784604461
H          -1.70299334683158   -0.27712875827349   -0.25790877219298
O          -0.44018998966363    0.75573591556100    1.85000549944245
H          -1.28451614222328    0.19756738246463    1.43281849295732
H           0.35233794333960    0.23078618937435    1.46137304082489
H          -0.39168230487206    1.63149000204030    1.32152127597825
