    19
        -40.92071435
S           0.85037254690233   -0.80413060081974   -0.90980584326720
O           1.41012824496379    0.25210136966306   -0.09837252226982
O           1.20312372104842   -2.13475151139231   -0.47107910662097
O          -0.61178008774844   -0.64177647392758   -1.03450136288661
O           1.42481957728818   -0.63755767292544   -2.37216706001302
H           1.39148313164023   -1.51891414748485   -2.73293799310004
O          -0.22945515976296    1.98144565754266    1.00777345809944
H           0.57680932176510    1.54995367371585    0.64141883811765
H          -0.71327798074980    2.28028769074525    0.20883571150258
O           0.81458113585499   -1.53396904087967    2.04711111849838
H           1.52359831862864   -0.89831273239853    2.18196458436572
H           1.00202897019221   -1.94368333944097    1.16960106824932
O          -1.40342209703586    1.89749876649479   -1.38221464178009
H          -1.09754100882500    0.96950002746332   -1.42140864198816
H          -2.29929018553598    1.90548593348516   -1.72234696324965
O          -1.26183178171780   -0.23941425777088    1.36362292101571
H          -0.89661243553398    0.79728491946799    1.34728330317869
H          -1.17208646129324   -0.49052066348844    0.37259278876980
H          -0.51164778012083   -0.79052758805131    1.80463034337463
