    19
        -40.92343579
S          -0.80447818639341   -0.62047786853029    1.34655295753871
O          -1.18291684475528   -1.69947420149579    0.43305051415357
O           0.55912181121311   -0.76020102814267    1.81170928907436
O          -1.06666102484011    0.68863276247150    0.76980859232998
O          -1.75036324887770   -0.74835014449059    2.59992113716368
H          -1.53332607597388   -1.61112346611497    2.93910760707492
O          -1.02768142626271    1.00440563588537   -1.88001172149947
H          -1.31764205626997    0.96206664352870   -0.94494886148739
H          -0.34768745321069    1.68683668871035   -1.90028780024336
O           1.99453690873048   -0.50248886225227   -0.36014020469147
H           1.63686316715722   -0.72433487487751    0.53255833064492
H           1.91242694568971    0.47301336746921   -0.40724734895001
O           1.07031265012352    2.00587049420357   -0.09402316568800
H           1.48153791049582    2.57522468458592    0.55760508186482
H           0.28609205280341    1.60768534763039    0.34430870217137
O           0.04231396293214   -1.29715562332062   -1.68941819661769
H          -0.40026155253718   -0.40957981330738   -1.95884903135975
H           0.97088306857591   -1.02557975100692   -1.23443924502711
H          -0.52307060854430   -1.60497000087324   -0.86525665641346
