    19
        -40.92343602
S          -0.60772805569130   -0.82329507617337   -1.34092499592885
O          -0.96856635405088   -1.84691719113464   -0.35899073331435
O          -1.52956968564603    0.29249427405993   -1.32174854017098
O           0.77789910685872   -0.40552034317758   -1.19718187783092
O          -0.71804139198421   -1.50807330555049   -2.75543631642551
H          -1.63641840135526   -1.75573233340738   -2.79723135060873
O           1.97179522722721   -0.55677512485402    1.18477185880817
H           1.73613292599716   -0.69390175141120    0.24361493990492
H           2.20922199368226    0.37474229541283    1.25038421108781
O          -1.21336041197062    1.33101866429073    1.05880453323658
H          -1.54638699281321    1.03388849976272    0.17863532036656
H          -0.37246546431742    1.78761638705895    0.84673024532118
O           1.14475947236002    1.96562802214854   -0.06117657578207
H           1.03487073462343    1.15778177676599   -0.60982689738343
H           1.17538585996378    2.70264608604855   -0.67257899376690
O          -0.45384929172975   -0.89706047226888    1.87704551464895
H          -0.83651847925493    0.08064178573734    1.67662651471407
H          -0.73342959110948   -1.42233629033812    1.01678709394081
H           0.56626878919747   -0.81684591296874    1.78169602917823
