    19
        -40.91893412
S          -1.54984183487864   -0.29054447920712   -0.72946641803904
O          -1.48152468508735    0.29484666501612    0.59516784314754
O          -1.65485343506130    0.65542067268860   -1.81138213290303
O          -0.45724990261840   -1.25252344824933   -0.93858986314283
O          -2.88271150338315   -1.15223483894509   -0.75619426498054
H          -3.09779228951536   -1.18391778087120   -1.68348260574981
O           0.24155700633211    2.08003738512882   -0.65494901952226
H          -0.41639993012686    1.66412122627207   -1.24842754307368
H          -0.19916307272423    2.11108709582446    0.19955336599121
O           1.50103145784342   -1.29352656160886    0.55047627243904
H           0.66060423183291   -1.36132080569251   -0.10824542221785
H           2.02164646961202   -0.48042362130106    0.17451867419882
O           2.51093121339793    0.77615613034656   -0.49367128703130
H           1.70274412958167    1.35432357856340   -0.54484263468564
H           2.80102203697515    0.64308724478679   -1.39824398939962
O           0.11878834198650   -0.43326127405268    2.49703762407289
H          -0.34285725678044   -1.05758561896926    3.05979879245193
H           1.07840934113122   -0.98976992515312    1.43394532841212
H          -0.55434028848325   -0.08397164452992    1.85699728002539
