    19
        -40.91893415
S           0.69359048589438    0.65124670267113    1.45077600752856
O           0.42425786192260   -0.31646593128019    2.48396490817648
O           1.56034643360412    0.18851605402206    0.38480659819749
O          -0.54001120361894    1.24157652426397    0.90938374019256
O           1.46480353382406    1.85029552319062    2.14909120837159
H           1.09366759810916    1.86050838807203    3.02614544959803
O          -1.20912413745444    0.85663219532036   -1.42638078423013
H          -0.95711943724573    1.10135013809934   -0.41497456060877
H          -1.59169619506631   -0.10236112487500   -1.34111900370204
O          -1.99220095653016   -1.50175499307767   -0.95799061583718
H          -2.77207685619323   -1.53941253220632   -0.40078995812629
H          -1.23679215849149   -1.82841075357603   -0.39861396975006
O           0.02796083024566   -2.11757467512324    0.59613915930483
H           0.07673250121017   -1.58536039220550    1.41618225139609
H           0.86415052797576   -1.94354727220195    0.15349330749485
O           1.21246225044838    0.61298393473499   -2.14709031548272
H           1.71070327593574    1.39388030702705   -2.39513842854041
H           1.46363118577839    0.40810428153870   -1.20936848227545
H          -0.29328554034076    0.76979361560673   -1.87851652172284
