    19
        -40.91893394
S           0.66222951628445    1.55950680206177    0.37171991823514
O           1.19707734055402    2.06860980527592   -0.86570332337294
O          -0.77450237007662    1.36550538227378    0.38726304247038
O           1.36354645479148    0.34752530864651    0.82174133006881
O           0.96456387313772    2.65808006016339    1.47718939706834
H           1.78765819667071    3.03644103181277    1.18332813573282
O           0.20171844663256   -1.81789167057224    0.94062281327073
H           0.20783294894163   -2.07269278365874   -0.06365653141920
H           0.75631369919161   -0.90279489257818    0.95533835611271
O           0.27430137133870   -2.14948928680286   -1.56505450409279
H           0.00652560673448   -1.24043404978059   -1.86892302737170
H           1.15974520251417   -2.29382661852960   -1.90442536422155
O          -0.32243831031193    0.33550160633007   -2.15129459954399
H           0.34268154865795    0.98870374233787   -1.85289891263365
H          -1.13174074551480    0.60490124327958   -1.70654868520955
O          -2.01878119154174   -0.67353300277407    1.38939935931904
H          -0.75182303173948   -1.51402951185714    1.16268077850206
H          -2.26660371489892   -0.46382457695481    2.29169321019246
H          -1.65830484141170    0.16374141135069    0.99752860689865
