    19
        -40.92071435
S          -0.73267203774028   -1.28672288662434   -0.05002562702080
O          -1.92481315397142   -1.33215317242770   -0.86508301251693
O           0.48630167691507   -1.08700796599824   -0.79931778583719
O          -0.84751779129261   -0.28474347693585    1.02817957508192
O          -0.62299390426321   -2.68539031090669    0.67684730300479
H          -1.52939922212872   -2.96240608017164    0.77735842191163
O          -1.13991170086883    0.69044598763443   -2.33034964888134
H          -1.60012078612886   -0.06464140359812   -1.89322303720106
H          -0.37778273436092    0.29867705784746   -2.76698202075830
O           1.46114892308249    0.21243039200909    2.30145651784488
H           0.60270805935931   -0.09279378830543    1.94639340352310
H           1.27697815623150    0.62711289634854    3.14555607055527
O           2.00537871422188    0.97030157938123   -0.19501567520300
H           2.12888947178033    0.80603643135448    0.76347237547613
H           1.68701477246464    0.10386305527803   -0.53885491649599
O          -0.31386312239826    1.83527617225220   -0.21821910906267
H          -0.67340417796829    1.54746338507231   -1.13963677948064
H          -0.64843242811055    1.08511693009202    0.39758734617023
H           0.76249129514563    1.61913522773631   -0.24014340113064
