    19
        -40.91893375
S           1.21704275232867   -0.47099690741173    1.14247091322873
O          -0.17020474548065   -0.39856246220893    1.55760786486039
O           1.66392606894915   -1.77641351415524    0.72683991130505
O           1.52367654899561    0.56396708517885    0.14349399280956
O           2.07456986820632   -0.09034093184949    2.42296680086708
H           2.90869634391799   -0.51867917290529    2.25621897936691
O          -0.77290699191312   -0.21560752735907   -2.54910147773500
H          -0.75982004990157   -0.95414048363758   -1.88213725622813
H          -0.06887555338710   -0.40654689437069   -3.17195457076399
O          -0.56803024764712   -2.02186835538083   -0.65967012285478
H           0.32467728934553   -2.08602020732412   -0.26326468915995
H          -1.13936016062290   -1.80340400565160    0.08280075597494
O          -0.27477763931013    1.75281331288522   -1.04198333313435
H           0.55564095695343    1.30759855517703   -0.53446456307300
H          -0.53729166021619    1.02634790431557   -1.73244195807630
O          -1.84243451748323    1.47901006014205    0.93484701913550
H          -1.29052327970952    0.72052936107123    1.25851666540179
H          -1.83605818173467    2.13477806697804    1.63449826739164
H          -1.00794680127924    1.75753610652954   -0.32524320930891
