    19
        -40.92136409
S          -1.29085579358717    0.36175221629006    0.35406205905262
O          -0.86355997877367   -0.08059464262347   -0.95410614892462
O          -2.17434827724932   -0.55447006831824    1.03153535175349
O          -0.13286283713254    0.73859010108470    1.18393561065012
O          -2.09737190204390    1.71200548971258    0.13579781126902
H          -2.71745922190830    1.73329162424276    0.85922971960380
O           1.70157145013350   -0.17557505510045   -1.48094997789054
H           1.86148799647341    0.77637924563431   -1.29679047451582
H           0.72217186497421   -0.21261242789862   -1.57442074017087
O          -0.55965816199191   -2.55316338031556    0.44645125903651
H          -1.25100845618196   -1.93538081473880    0.77649129675324
H          -0.73541469688734   -2.64949209795760   -0.49373243914763
O           1.21155486704687    2.27599417036270   -0.55833502550993
H           0.55427699460736    2.77101596099342   -1.05035959617103
H           0.73501561439099    1.85769857820294    0.18335025690642
O           1.51642311462527   -1.11343823210611    0.80503386228402
H           0.81027728410688   -1.84772332981037    0.70098210655821
H           1.75808862453486   -0.78024233606080   -0.20903410130709
H           0.95167151485782   -0.32403500160228    1.14085916977429
