    19
        -40.91873678
S          -1.24050740212554    1.03975838514171    0.55814330324174
O          -1.13854464608919    0.77293394075150   -0.86576815945924
O          -1.47666953883647   -0.18412088796094    1.31145434722904
O          -0.08935422047428    1.78880390297744    1.04704852682132
O          -2.49842588046126    1.95756257169019    0.79874700185516
H          -3.22189065478079    1.33903743392743    0.77579846674451
O           0.70370585605751   -1.53187781408061    1.26411569263595
H           0.89310258987222   -1.87974211094741    2.13755750173172
H          -0.18060128532206   -1.06777168920775    1.33264632625380
O           1.24767649099472    0.41677463297500   -2.03797359611346
H           0.96699888813171   -0.52458307188081   -2.11133698920632
H           0.39705398859520    0.87724776736371   -1.90127549613424
O          -0.17223019420436   -1.74065347900981   -1.45968159626206
H           0.08939903170514   -2.10245271980714   -0.60636449114129
H          -0.78983045907757   -1.01564639407954   -1.26512729982508
O           1.93249620801071    0.53503128022574    0.34886472544497
H           1.62923434028227   -0.36049382217321    0.71284192055652
H           1.77155462378687    0.49922542492351   -0.72333667182076
H           1.17683224393594    1.18096665917119    0.68364646745043
