    19
        -40.92343526
S          -1.42493109203686    0.30642707007295    0.84926331852416
O          -0.63397350285292    1.42312465884309    1.32121403671928
O          -1.35309716437116    0.14107389311775   -0.59386452247168
O          -1.09325576814461   -0.93346413620019    1.55250931360882
O          -2.93284704182950    0.61668878679500    1.18387384968774
H          -2.91824397731571    0.72977472553806    2.12919198966127
O           0.29354667385041   -1.67935022583436   -1.64168667312659
H          -0.50810318439154   -1.18085861224791   -1.37915221774792
H           0.79851733901905   -1.06992124614336   -2.19122530424425
O           1.81725600950013    0.77629839597752    0.67477802376434
H           1.72248866165586    1.00139022800126   -0.27447148602438
H           0.99930163577615    1.14535722219859    1.08547202952427
O           0.77662279030551    1.21038844294669   -1.76303805909359
H          -0.08511658157929    0.93351394331396   -1.38017741394386
H           0.66185580264702    2.11570574884035   -2.05498625192286
O           1.15425273897819   -1.62453683425328    0.75322018104003
H           0.92004637351549   -1.80753251322181   -0.23046120677098
H           1.58537121958636   -0.64621341170990    0.76606222204788
H           0.22030907768203   -1.45786611603210    1.19347817077080
