    19
        -40.91893391
S          -0.70989362585960    0.69817360207914   -1.42072579014750
O          -1.50746667867100   -0.15791454944931   -0.56462682251237
O          -0.82507929758856    2.10930675322128   -1.15256465872483
O           0.69159399539493    0.25318980250886   -1.45423390439362
O          -1.25988981363468    0.47489380859484   -2.89291193368092
H          -1.02658764596786    1.28625158917997   -3.33373725608837
O          -0.61155251765459    1.56440094341744    1.42084574689676
H          -0.64442060313243    1.95773778973176    0.52512472836400
H          -1.31466764334492    0.90793317365376    1.41492221595447
O           1.68742120562897    0.45611352572733    2.02250995292876
H           0.80780498343601    0.90179283580153    1.88847781483784
H           2.35366226745248    1.12441213415078    1.85055385207055
O           1.56176786558316   -1.31910084727357    0.22599138005817
H           1.68880834370800   -0.66866725225852    1.02223350256572
H           1.24014291344751   -0.66911526328242   -0.56117254805677
O          -0.72569156550039   -2.38115006194506    0.51057413340965
H           0.72213031651239   -1.87181229711675    0.42746043495070
H          -1.14423652636677   -1.56305966105361    0.13628890992230
H          -0.98384597343506   -3.10338602568288   -0.06500974835745
