    19
        -40.91893417
S           0.43890940185339   -0.82931337765242    1.46073233629538
O           1.87869133327196   -0.88849297114945    1.46100228893153
O          -0.12218046265703    0.50540153421222    1.53500558531652
O          -0.14620055681819   -1.58662226407604    0.34379774452801
O          -0.04126136008899   -1.57698074727697    2.77601949643309
H           0.62371163763311   -2.24841846656464    2.89502443456960
O           1.88816756185020    1.08339219336173   -0.29295390227996
H           1.32249724536163    1.65482296529088    0.23506020920382
H           2.07816724231429    0.32483298369772    0.29572963969411
O           0.71201338944548    0.42338740435557   -2.54209473906378
H           1.25292083705727   -0.26922299486652   -2.92656819241851
H           1.20447113153234    0.74523594769267   -1.73969841238232
O          -1.39333013518532   -0.44707382937397   -1.44441996123664
H          -0.90229387651207   -1.01155770582547   -0.67860612736541
H          -0.60042394378589   -0.07135863318923   -1.99511698760983
O          -2.11632773030570    1.39709880997282    0.14268735213981
H          -1.36421306528769    1.16322918609903    0.74609093760991
H          -1.79498711461362    0.34263244636053   -0.92884017132041
H          -2.91833154508521    1.28900754893347    0.65714847896193
