    19
        -40.92136353
S           0.44231739152447   -0.98598291461026   -0.86814002371027
O           1.35699671925368   -0.33998098503639    0.09007419941375
O           0.25246815551090   -2.38649596850581   -0.58316521299120
O          -0.78468172456079   -0.23271282898730   -0.99602484430768
O           1.18120084071743   -0.89003865531930   -2.27024750038916
H           1.70099163290107   -1.68753081892309   -2.31654433150108
O          -1.47311046320021   -1.77263395134357    1.31171089550175
H          -2.22658232357686   -1.50037007669705    0.78047166372793
H          -0.84169820971424   -2.17901138897344    0.67557674754229
O          -1.10517359768023    1.91968318137267    0.46364976542307
H          -0.30579475873201    2.37508402962211    0.11827467280148
H          -1.24650864208061    1.20620355809406   -0.19985908810424
O           1.23074716640558    2.19309360241206   -0.79003026732004
H           1.45257620413957    1.29251699218010   -0.48703083828286
H           1.18262102611061    2.14706347945067   -1.74639998278883
O          -0.11806960055977    0.26853283968319    2.02553658632997
H          -0.60547543390582    1.08482875283836    1.48370555447544
H          -0.73562420678982   -0.54278256451349    1.93072370899001
H           0.64279982417350    0.03053370728622    1.37771829520833
