    19
        -40.91892606
S          -1.14165507290513   -0.57433094585188   -0.65025599027572
O          -1.21431705000024    0.78195382805572   -0.07525650210167
O          -0.87498994230949   -0.52990694946054   -2.07191184752335
O          -0.24027205955772   -1.40764024897973    0.10635981810912
O          -2.58898694154104   -1.18538790323531   -0.46955904764619
H          -3.09833286765475   -0.80754831184736   -1.18052330314902
O           1.70402921705058   -0.30761079764789    1.70898506877853
H           0.93767109704331   -0.23738871795665    2.32207192339467
H           1.45584254293756   -1.04432513063641    1.12813245249359
O          -0.84805169136926   -0.31533287486678    2.50081410755459
H          -1.31427267352169    0.46041335260150    2.17580482716400
H          -0.84420056462984   -0.93296511746976    1.75045956523247
O           1.54488185334606    0.41032487610629   -2.17244247123722
H           0.66366213499935   -0.04198984463129   -2.21660971979126
H           1.62735615690516    0.92037641295827   -2.98121187767956
O           1.15135761434714    1.51111768827189    0.08376243807582
H           0.11590900383029    1.32819024987667    0.05463461658384
H           1.50091571355702    0.81435546190946    0.81153251768190
H           1.46345351947638    1.15769497280142   -0.82478658566714
