    19
        -40.92135406
S           0.12604062420445   -0.31957747282927    1.52236880978660
O           1.47986670981636    0.15975595691077    1.35084142416064
O          -0.87410930482266    0.57020860330973    0.95376766290615
O          -0.03662879039450   -1.68999603521773    1.03529575122867
O          -0.16182338512151   -0.36249041898492    3.07334682646479
H           0.57401836378303   -0.86354853564482    3.41128726772284
O           0.22752624940001    2.36890331199430   -0.71685201222877
H          -0.26129335692111    1.82702811903962   -0.06717239462077
H           0.69540303240668    3.03587183903739   -0.21141449646327
O          -2.12823406413649   -0.32157192357776   -1.19840035176420
H          -2.89577483471518   -0.83474331210198   -0.93917298513868
H          -1.78990543843886    0.10965092076919   -0.38103170350840
O           1.73556455926201    0.26621782954876   -1.25479260956409
H           1.88261726468680    0.19003903420814   -0.28250786056853
H           1.23505537785054    1.11290056740859   -1.33777653318481
O           0.08497438565312   -1.56777409200092   -1.44845093177039
H           0.07594516196599   -1.78542831918049   -0.43249165026296
H          -0.81535097550847   -1.10976347323201   -1.57356042004271
H           0.84610842100980   -0.78568260943792   -1.50328378315337
