    19
        -40.92343636
S           1.32089140837131    0.80794240720026   -0.66893253480373
O           0.95821562997664   -0.01444287321784   -1.80358575108425
O           0.17348578130368    1.47290616808668   -0.07182606711561
O           2.08952414388315    0.05792902185866    0.32543582119561
O           2.27032927742545    1.95099767332592   -1.19236111415388
H           2.99839077766763    1.46410000586090   -1.56559007745440
O          -2.17994249819352    0.34363349683919   -0.55478682653070
H          -2.62741871349160    0.66803776912368   -1.33747062050017
H          -1.34684479439211    0.85966891817221   -0.48063994286271
O          -0.96654370161405    0.44844533840065    2.11258589471808
H          -0.49408919711181    1.04094895914904    1.49129246883239
H          -1.85065131942617    0.35078446234086    1.74199858039911
O          -0.62284284530598   -1.83289994879734   -0.78545873473151
H           0.01579684092018   -1.31293437964761   -1.32936694115267
H          -1.40551587810669   -1.24626669287084   -0.72234948961640
O           0.50125917516905   -1.51047371005346    1.41473035054834
H          -0.11471932683718   -0.82130367364319    1.86385984770774
H          -0.00356558033921   -1.80223685551054    0.51808741392166
H           1.28424082008689   -0.92483608661647    1.04437772267000
