    19
        -40.92120609
S          -0.19923616148547   -0.34250042052624   -1.32083211413341
O           0.58518866167517   -1.36712044291957   -1.95302924516394
O          -1.13955018059311   -0.86269264702758   -0.32759199717178
O           0.55785714767685    0.77875630827772   -0.78855740337812
O          -1.11417894024277    0.30342087472983   -2.45978472426302
H          -1.26679340517966   -0.41107418870419   -3.07098502539370
O           1.45631186741800    0.25359998362400    1.67696184513156
H           1.63395946622886   -0.68462735030596    1.45125999590022
H           1.43229353837527    0.68926444963475    0.80410569783190
O          -1.27124343322337    2.33993896434013    0.24819963166115
H          -2.02273731504568    2.35375003544098   -0.34735830004235
H          -0.53194285724742    1.92454040311196   -0.25291599267646
O           1.63976296414409   -2.07260882918813    0.39464531663149
H           1.23542860442884   -1.88635154830893   -0.47475765256837
H           2.40145813899721   -2.63032528523666    0.22289699690567
O          -1.03272413400331    0.33921424150047    1.83153212908075
H           0.02836437844283    0.31031523694148    1.94721720756341
H          -1.22996750647096    1.24797962474922    1.42693632498007
H          -1.16225082388228   -0.28347942009156    0.99205733907377
