    19
        -40.91907667
S           0.72561015544849   -1.08500617616031   -1.03812014610055
O           1.83758458246758   -1.75446034032684   -0.40498104879210
O          -0.56568145125269   -1.41732933311532   -0.48208883941655
O           0.92130107989569    0.38020907629647   -1.07315004357300
O           0.70750373698488   -1.53717688693258   -2.55495408092673
H           1.62453115518845   -1.62999988375357   -2.79975070354379
O           0.74705656912531   -1.31896114591004    1.93935080156277
H           1.35452009300665   -1.63137590723067    1.23182098680089
H          -0.12324647645709   -1.60376701768725    1.63183881737876
O          -1.61868238139964    1.86529975528494    1.19468202227724
H          -1.80566252116061    2.80415874713945    1.13846459353903
H          -1.82650723167425    1.47441373940677    0.29638745178576
O          -1.77571420199023    0.81954842337100   -1.18780214469002
H          -0.92389123976750    1.08392690956348   -1.55929573086192
H          -1.63241781216275   -0.12249415392228   -0.96995901729562
O           0.79452283610485    1.12164624781735    1.29146472188789
H          -0.18190279571135    1.47469703016517    1.35133324690386
H           0.80348531801292    0.17597263173072    1.72518882532717
H           0.93759055534667    0.90069827425969    0.26957028775015
