    19
        -40.91898062
S           1.14276633147984   -0.87464229082422    0.77199910280660
O           2.32931820154369   -1.07633491860513   -0.01704730136201
O           0.85186905327528    0.51994444473045    1.06543852522010
O          -0.04066488413634   -1.52506820900023    0.18280751809590
O           1.37019048162187   -1.58635925576788    2.16780272400305
H           1.94692558949026   -2.32301392641303    1.98329908739602
O          -1.72821224232105    0.24740052377858    1.57411917438232
H          -1.76937925084780   -0.70682146137612    1.45830844328711
H          -0.77063587022485    0.45431737033863    1.56011994438992
O          -2.27414463532141    1.30651872238392   -0.74703835993856
H          -2.00422718887980    2.22557973704632   -0.69231568049954
H          -2.21002885655689    0.93750256145304    0.18000703665905
O           1.58085327018858    1.06744230314747   -1.42312699603347
H           1.37284961752843    1.28403181543460   -0.49471503498863
H           2.21987647973802    0.34147573469098   -1.32602405943489
O          -0.57328852401460   -0.20189942973823   -1.84460477547545
H           0.29396068684116    0.36260736308710   -1.85186603381987
H          -0.40425970225753   -0.87687164840418   -1.04943275535694
H          -1.33376855713117    0.42419055409117   -1.49773054934019
