    19
        -40.92246924
S          -0.68170068254594   -0.77110179745001   -0.29102387343061
O          -0.86814257466119    0.27940515334268    0.80059260754051
O          -0.86682362304037   -0.14700436724676   -1.58047814855600
O           0.56141762038624   -1.46080674074373   -0.12151528361592
O          -1.84649585011929   -1.74854869670790   -0.02134363877558
H          -2.65647728538202   -1.21434088225330   -0.21824197019992
O           2.46314687821597   -0.72776654127658    1.63207827168505
H           1.87249553134022   -1.14254507212842    0.97489549341553
H           2.35763051317528   -1.22498314518787    2.44483940679802
O          -3.39487432915394    0.21492891315294   -0.73428841556553
H          -2.66718727909133    0.34593404566187   -1.36384546320635
H          -3.29040436280134    0.88485778095113   -0.05284725292449
O           1.58603765504217    0.98140584479052   -1.54634555094265
H           2.16164440951195    0.21368113177297   -1.58881667289415
H           0.69593453341421    0.65993209159762   -1.77039158932760
O           1.23703528108815    1.54085617778982    1.01849640443189
H           0.03177905938521    0.89289854584477    0.95377098132791
H           1.82727242251326    0.85043344204343    1.40377418049237
H           1.47771209272173    1.57276409598174    0.06069051351059
