    19
        -40.91907707
S           1.30636580160709    1.01945395158509    0.18299895337756
O           0.75668430533632    0.37995406033829    1.35629692371894
O           2.51991050307156    0.41334222931290   -0.31288006760245
O           0.28330959510287    1.13737124763313   -0.87770654325678
O           1.65962405909591    2.50864960733334    0.58745275347606
H           2.33018662888438    2.78319795839959   -0.03264115081738
O          -0.39066559576257   -1.19010724877129   -1.41230961436962
H          -0.12206501146030   -0.17459504304953   -1.31241660301303
H          -1.27634010115136   -1.28290109918027   -0.87478885912755
O          -1.74190375733098    1.13277768556820    0.96100813519832
H          -1.41588969460868    1.56308087126884    0.15971911059123
H          -0.91708377094427    0.87528886143145    1.41797979699743
O          -2.47643347020394   -1.18189507393852    0.01397538796918
H          -2.29471586227097   -0.31663925165353    0.48435644500473
H          -3.32652719503423   -1.08861258291411   -0.41978775302695
O           1.48164465595274   -1.95991519887265    0.09796164962511
H           1.16204194441256   -1.70857902971800    0.97435985825422
H           0.35067835632482   -1.66953064989476   -0.86188637342828
H           2.11117860871538   -1.24034128491887   -0.13169205956579
