    19
        -40.91892675
S           0.65327767752128   -1.12311326272770    0.60741120906900
O           0.05975273609972   -2.30931002060425    0.02894605791663
O           1.34876376536258   -0.31870804384561   -0.41475552152233
O          -0.25490625523412   -0.30830907134610    1.37579097486889
O           1.78432379361883   -1.60729992273213    1.60086247077182
H           2.20362798488702   -2.33402398246120    1.14949150875018
O           1.29974662084913    1.89917294786451    1.33140045240476
H           1.90721455041921    1.61430791664239    0.64242438439297
H           0.88201200568635    1.07983118059537    1.64549639477260
O          -1.19449798081291    2.08174632624350    0.39160844625734
H          -0.32143545928211    2.38284532921002    0.73146530121627
H          -1.38543631462449    1.30037854260646    0.93446670747795
O          -1.81047219990370   -1.33457025695467   -1.48805329072913
H          -1.91826891963967   -1.92513043087586   -2.23684163928404
H          -1.18943765225212   -1.78802728984634   -0.86216317579321
O          -0.47709110928785    0.82266649908182   -1.64663293558381
H          -1.11964691157049    0.02798435693272   -1.70508763156260
H          -0.84820346068974    1.44930308746890   -0.86761681832136
H           0.38067712885098    0.39025608475580   -1.21821290510199
