    19
        -40.91898909
S           0.91781745767121    0.35076989567340   -0.49463745542911
O           0.94293357277027   -0.96275569680544    0.16448308379857
O          -0.21722170116882    0.46128450076390   -1.38704491120594
O           0.93316897778580    1.42768622062794    0.49814650597600
O           2.23520323588571    0.49239122718706   -1.30703575068549
H           2.31578172145107   -0.36259405726872   -1.78035846402330
O          -2.45504938319243    1.46627548288281   -0.58604120896299
H          -3.09806859305998    0.76485755805995   -0.71226216904013
H          -1.62237734542114    1.15711273337694   -1.03536280258039
O          -0.98167100726255   -0.99854379743800    1.90277925667634
H          -0.26785169506826   -1.07697954353821    1.21381502522752
H          -0.60405728801901   -1.34433236703500    2.71434548795440
O           2.12025923436544   -2.06777644429851   -1.91751198626376
H           1.56430462051077   -1.94251098172165   -1.12356388114892
H           2.87231515676329   -2.59979849215787   -1.64681224810832
O          -1.25206582485662    1.51235981931547    1.62756908200581
H          -1.26180931423150    0.51760277311478    1.87594598957119
H          -0.27385434755122    1.60900842204944    1.19901444622201
H          -1.86775748754442    1.59594273706070    0.79453201000874
