    19
        -40.91907732
S          -1.59784189590016    0.30162682929478   -0.37001596866229
O          -1.88258641780980    0.00190624680432   -1.75373537752846
O          -1.27899658091772   -0.85371981601256    0.43691113585832
O          -0.55014864561822    1.33665217266739   -0.24107870537540
O          -2.90285045798846    0.95237918515097    0.24575197534095
H          -3.29204096243737    1.45345013685075   -0.46634542591519
O           1.53670324244485    0.27399901409614   -1.06040786562654
H           0.69476509668776    0.83708326304921   -0.76331281142171
H           2.00172287272031    0.00428362431035   -0.17030045744892
O           0.15385601533418    0.42877395141014    2.24408055684405
H          -0.43991709620001   -0.22978081135299    1.83234151537093
H          -0.02418788447541    1.22739471293079    1.73054489997867
O           2.43297243528521   -0.32262962154494    1.22592187960594
H           3.13538662886651    0.21432845494185    1.59715245161756
H           1.60088695225352   -0.10629034372857    1.73930445339846
O           0.12163557892915   -1.68884254290837   -1.78421285908425
H           1.10042807251656   -0.58723878426304   -1.44815400434108
H          -0.14449322780984   -2.07965802409656   -0.94176792448839
H          -0.66529374586734   -1.16371764761310   -2.05267746814133
