    19
        -40.92246923
S          -0.44692848987728   -0.96046308950005    0.15555807206836
O          -0.38881227698850   -0.77297114780179    1.58657048006990
O          -1.46896833315925   -0.21513151384589   -0.51496869766210
O           0.92386378279364   -0.65300423057301   -0.44174702724532
O          -0.62299113056428   -2.46197817934411   -0.15900484050204
H           0.07602306246517   -2.90326143740534    0.38579398564756
O           1.33556935659737   -2.83631875443634    1.50980202455047
H           0.87115344793369   -2.11491777408869    1.96478275201041
H           2.10670605970221   -2.44339047190157    1.09132535085958
O          -0.98285847687470    1.74383133648650   -2.29114756806253
H          -1.32958249960751    1.04838362865656   -1.70053026868329
H          -1.01169014001456    1.38592005012417   -3.17992154271753
O          -0.51914610616809    1.91642616123783    1.38834098157743
H          -0.48713548589961    0.99000986757610    1.68268055866863
H          -1.40329974124316    2.05083204052216    1.03801456974366
O           1.12487983666079    1.79091488539104   -0.68409855640656
H           1.09404242297083    0.42510998594822   -0.57470549580527
H           0.47138341717430    1.95940425105358   -1.40367359770323
H           0.65779129407270    2.05060439188221    0.14692882954978
