    19
        -40.92120594
S          -0.97064223092961   -0.93524407329097   -0.29099183608639
O          -1.06505295181994    0.37642451433660   -0.93271285506557
O          -0.72317993657854   -2.00558286259508   -1.21723264445425
O          -0.08319269407592   -0.89221477456038    0.85980541804899
O          -2.41703508336829   -1.19571221009318    0.33506825987762
H          -2.89519122567533   -1.64237488319724   -0.35714926911080
O           2.17716879118113    0.42033563231226    0.28899533011791
H           2.20569718103647    0.05252677125783   -0.62000772815778
H           1.59662143697532   -0.20569917152225    0.76178259680340
O           1.58851130743657   -0.89187997005585   -1.95221362445315
H           2.08772447517690   -1.54093738055511   -2.45249836860858
H           0.72498143980955   -1.30321126089338   -1.75480663428067
O          -0.91019157720857    1.19044772097224    2.21528774525218
H          -1.86899770791411    1.19574949013156    2.19637786640621
H          -0.63444243351000    0.30394583295507    1.88625862381006
O           0.33263701627180    2.09635116199679    0.16579477289691
H          -0.10375338664426    1.98489652851032    1.07455190481542
H           1.23248056322064    1.52360987534538    0.21685051924211
H          -0.27414299369059    1.46856907879554   -0.42316007684229
