    19
        -40.91039666
S           1.17638278922099    1.00696792958473   -1.15944745256352
O           2.24062597051260    0.48502751196354   -0.32602205675590
O           0.53629520822385   -0.08068843502470   -1.93044473395453
O           0.19838018193913    1.79992225208649   -0.45938804424272
O           1.85025726955548    1.93906423245020   -2.23670059890983
H           2.58512373632651    1.42065902343104   -2.55133065957596
O          -1.50760330849070   -0.85185745036948    2.43558598999693
H          -1.86954605542590   -0.05845914629128    2.03005165713952
H          -0.55121583737021   -0.74845661970172    2.44232665881192
O           1.07983873942881   -1.20085423155504    1.25214435165436
H           1.69223986380201   -1.91558092870193    1.43683570971839
H           1.58474988914569   -0.52342889435654    0.72979136890386
O          -2.10524838187555    0.77697294533871    0.15298826644782
H          -1.26677414142883    1.27634529944439   -0.02262916147994
H          -2.76766840662586    1.14118246744024   -0.43669153361279
O          -0.86602545660769   -1.39874514548019   -0.41749190398625
H          -0.26697842336127   -0.88396001531686   -1.17407642203337
H          -0.21413820786314   -1.49760490178941    0.35469752493602
H          -1.52869542910464   -0.68650588315236   -0.12019895048738
