    19
        -40.91898908
S           0.01719651773866   -0.68621897290831    0.86016240932458
O          -1.33660890006988   -1.07769270443207    0.46109481184604
O           1.00102381853722   -1.07775016658412   -0.12761166082797
O           0.08331843324222    0.75817417842559    1.12430415596329
O           0.30269757820616   -1.42098210371293    2.19971405125735
H           1.09022565328565   -0.96117946644811    2.55982640212598
O           0.40747128199253   -1.18100349949470   -2.63659840938637
H           0.72459704657687   -1.27575943390079   -1.69770052731476
H           1.00979714637849   -0.56286589162735   -3.05672501007661
O          -0.87623784012809    1.97365870554202   -0.95629920985140
H          -0.43934343258790    1.57681888754458   -0.15506869687367
H          -1.48714441296730    2.63462386495381   -0.62358035124653
O           2.07178805857637    0.43004038643904    2.82195973884129
H           1.48215752641131    0.81946137339542    2.14689335049109
H           1.91314017894631    0.91108406396004    3.63763272471254
O          -1.77956080564703   -0.24139794676105   -1.81123919250438
H          -1.71094084893445   -0.68841707327770   -0.83940649600471
H          -1.51009609491771    0.72587701699686   -1.60375941167589
H          -0.96348089464411   -0.65647122809195   -2.30359866880406
