    19
        -40.91039666
S           1.06592013423015    0.41172032609210   -1.56072728457214
O           0.41465325469509    1.70505241322261   -1.50831275169106
O           1.95277336440259    0.22637208369070   -0.39166461793341
O           0.17168686758050   -0.70596743838962   -1.72384102569323
O           2.02539678429237    0.42883726827868   -2.81064220021525
H           2.48535057580638    1.25910505817075   -2.72743882321637
O          -0.44113572458532   -2.18086093214394    0.31945613441210
H          -0.28487744352159   -1.69422078497581   -0.53036013923362
H           0.02768515453965   -3.01388593226574    0.24642802726048
O          -0.95171428365829    1.67602876651968    0.68549951019709
H          -0.50980339984900    1.73816022037349   -0.20192659867642
H          -0.96830654693919    2.56491987469288    1.04545547685928
O          -2.37232821994878   -0.58998198379652    1.71736840630643
H          -2.32307167550346    0.20682120603775    1.18053865301046
H          -2.13189042196907   -1.32511707978075    1.14569808030299
O           0.57168386488033   -0.18995774198846    1.58626124521715
H          -0.12069990924404    0.54057240003755    1.45240586745390
H           0.11077886501745   -1.05187921123922    1.30425798310895
H           1.27789876977309   -0.00571853240129    0.77154405694964
