    19
        -40.91907711
S           0.96186033795491    0.77086803220446   -1.12313661530301
O          -0.11122786447946   -0.07492506689526   -1.59298097137042
O           0.67435195438996    2.18509150748204   -1.17986999932705
O           1.40268340936304    0.35783973032650    0.22609620869199
O           2.20675397811384    0.50920682010637   -2.06528390509839
H           2.74239645939538    1.29506521749277   -1.99514298052875
O          -0.58774516791966    0.61665666466194    1.68428992168621
H          -0.93979737145579   -0.36044056204334    1.73920650497887
H           0.32983607050882    0.54259754874907    1.16782476887922
O           0.55822121170881   -2.21211336873724   -0.19727656145898
H           1.28607609088462   -1.68225581140672    0.15289234998517
H           0.20702821522845   -1.64926477944030   -0.91540769311744
O          -1.26934150945118   -1.81579754977301    1.61880509827886
H          -1.07884273306511   -2.36503638435481    2.38140796588383
H          -0.63728424664234   -2.09631145306236    0.89451044957624
O          -1.74202985580518    1.71386559586390   -0.27614676926152
H          -1.18752614090583    1.11733324069677    0.99739634548081
H          -0.94671327138655    2.17127040198660   -0.63009790598313
H          -1.86869955646813    0.97635021618720   -0.88708620202816
