    19
        -40.91907734
S          -0.76545729884079    0.87867909178757   -1.19301540082689
O          -2.09948693861908    0.38275683467255   -1.43789456751934
O          -0.58376506036566    1.48536579847861    0.10563806043584
O           0.25568008387787   -0.16324719542690   -1.43302703153660
O          -0.47712379050445    1.99928061540171   -2.27350191293969
H          -0.93252351051564    1.71079149511627   -3.06013010281981
O           2.01373532736831    1.05238642882738    0.27640129782613
H           1.93669604999170    0.62707644460401   -0.58758434650004
H           1.13710604603275    1.46989734426062    0.39030596442339
O           1.74803852723397   -0.99690770575466    1.86526719064092
H           2.57634497325600   -1.47894551535460    1.89771792809415
H           1.92659424993122   -0.14734313745196    1.36610478535934
O          -0.08632762234018   -1.85193416146312    0.35217780764917
H           0.65499325661060   -1.59329211184842    1.03429397513325
H           0.09177646631671   -1.23378360475555   -0.48465056917426
O          -2.17073156500054   -0.58099100673832    1.00047458487416
H          -2.42981392500429   -0.32173476457075    0.08806991423254
H          -0.98272651729306   -1.47308689192627    0.71946130434041
H          -1.81300874203109    0.23503201213984    1.37389112829604
