    19
        -40.92161542
S          -0.29561369402157   -1.01600250392401   -0.12639426264720
O          -1.52960046479690   -0.60226277552289   -0.75350018701868
O           0.87069014237455   -0.33889564186240   -0.84554277077393
O          -0.22906056093944   -0.78909689542322    1.28563811503688
O          -0.04926003345743   -2.51125993136206   -0.41600839959811
H          -0.16938599952896   -2.59152960268572   -1.39596499956340
O           1.62102260604213    0.80676413941156    2.42930902721861
H           1.45917620712360    0.92866766720774    3.36617766880984
H           1.01178309860856    0.10870445999043    2.12608370169220
O          -0.54809513246942   -1.91397459696473   -2.89602318459213
H           0.17915550230925   -1.34663324514878   -3.16707434247556
H          -1.19919424096310   -1.33978516229378   -2.46145300622518
O          -1.51593295424961    1.73625018116775    0.60140625800365
H          -1.73666358232009    0.99588351835116    0.01160546222282
H          -1.60021700160484    1.38494817422640    1.49134031347549
O           1.08794805818525    1.94885863776732    0.07139509476462
H           1.03495509965904    0.67564469094266   -0.50555482280060
H           0.13024157238949    2.11634813053057    0.23684366398948
H           1.47805137765592    1.74737073559830    0.94771666049162
