    19
        -40.91907683
S          -1.11075839538920   -0.44169369377498   -1.16376698626291
O          -1.31374284052468   -0.57850794423138    0.29395409316853
O          -1.80391283907824    0.70963806229440   -1.69257602166879
O           0.29543297790480   -0.49393137515466   -1.49232042462388
O          -1.78423273234709   -1.72547335391620   -1.79977764572076
H          -2.70574202039032   -1.50096865492777   -1.89877243299534
O           1.03600504638667   -1.95974846637238    0.57298561226829
H           0.10825187175132   -1.95122666508808    0.84129757627396
H           1.00563955158290   -1.57202778093172   -0.32409436355075
O           0.23576759855476    2.21907113531427   -1.02978197871659
H           0.86764219821504    1.58435543222570   -1.39236112515884
H          -0.62616043277922    1.91814452162171   -1.39492989710269
O           1.96670865902024    0.07337096260004    1.91286703226599
H           2.09995131310432   -0.18690876971591    2.82610070556068
H           1.74778684673356   -0.76020662569798    1.40300120032224
O          -0.13025203636551    1.34956042994069    1.31297732334171
H           0.07036162879410    1.86048820503481    0.42895265454405
H          -0.72114961229835    0.54274688204186    0.97596005070515
H           0.76240324710923    0.91331769873244    1.62028462736097
