    19
        -40.92071442
S          -1.05542657926200    0.65910910294807    0.80494098790150
O          -2.16485271046873   -0.16266244607287    1.23083751330806
O           0.22858541086303    0.15751631315018    1.33387229446733
O          -0.97505004118138    0.84644148802246   -0.62535841562311
O          -1.26181236893057    2.08112127550944    1.46206737487362
H          -1.71862273286443    1.89179729338877    2.27673435909179
O           1.23540344880387    0.13994231529279   -1.85840479089324
H           0.37437100772330    0.56561738036011   -1.64014302066396
H           1.88502701883993    0.65315563769704   -1.33288599953947
O           2.38552373492697    1.31582779954945    0.23740946779013
H           3.14688759247254    1.16386081199047    0.79921215886491
H           1.60177249703033    1.02204202074517    0.74305732529530
O          -1.77192669977595   -1.89369247304155   -0.69359794084552
H          -2.06773303833238   -1.36662675902508    0.08595453275741
H          -1.98540539215590   -1.34968969401160   -1.45745055028926
O           0.72853891752801   -1.70281751002996   -0.28576072537987
H          -0.24438849565309   -1.95593463415997   -0.50971648444897
H           1.04269386872827   -1.00685408862492   -1.07584762606574
H           0.61641456169924   -1.05815383368252    0.50507953949644
