    19
        -40.91892665
S          -0.90656653757467    0.97076676232093   -0.54262328477754
O          -1.31247830714639    1.81809266499872    0.55787249493471
O           0.49804045585727    1.03006942232692   -0.86309712552530
O          -1.34204590166585   -0.42311797179597   -0.33503984704957
O          -1.68863310280237    1.46817087996791   -1.82395649027867
H          -2.56302106692561    1.67212644014765   -1.50532518084115
O           0.11555366086286    0.91922403991461    2.53363217862534
H          -0.38804833529798    1.38219286847232    1.81595704294282
H          -0.39102792739063    1.03960546644017    3.33985380790037
O           2.19471969629905   -1.03099905186674   -0.20092558777878
H           1.81737276381709   -1.39740495062993   -1.03259082650041
H           2.09454993447557   -0.07270484526415   -0.31608189343083
O           0.52715925883977   -1.27184635229254   -2.27468603397792
H           0.49755253022610   -0.32165936225645   -2.07259328804696
H          -0.32889440378273   -1.60777740862370   -1.99346681748172
O           0.24846402065869   -1.32176521500405    1.34284242372171
H           0.27416683589752   -0.50377284967156    1.95751452654562
H          -0.49290401662023   -1.05776709314571    0.64460612131539
H           1.14604044226097   -1.29143343400013    0.76810778972286
