    19
        -40.91990217
S          -0.01542309964595   -0.11101783325632   -1.50744192479677
O          -0.31688540413721    1.09954458261960   -0.75962985513325
O           0.62109894998226   -1.10338640034299   -0.61132308316077
O          -1.14091157200060   -0.65404312467629   -2.20956243605348
O           1.09341334653402    0.27558342492032   -2.56064968842725
H           1.68106820252951    0.87205063157620   -2.10155004117107
O           0.24475169565711    1.16723486662588    1.79074658642844
H          -0.00419988462427    1.42057954275933    0.87127369445328
H           1.19675461815301    0.96121442949671    1.71188760878281
O          -2.71853200596946   -0.28255532251080   -0.13491110351440
H          -2.74373885665536    0.67900722945682   -0.12719747567350
H          -2.29939157424851   -0.51832189329334   -0.99448411887678
O           2.51601953752149    0.16885113334545    0.71938537289259
H           1.90420365230541   -0.37024537591075    0.17377488087860
H           3.19756371628761   -0.42752469227682    1.03359838558381
O          -0.84771397191252   -1.03417467002007    1.40976054467702
H          -0.21835373040838   -1.25294272578880    0.61938215495318
H          -0.42606375659751   -0.10157450750730    1.75357401654245
H          -1.72365985278343   -0.78827929520868    0.92336649159895
