    19
        -40.91941559
S           0.73874139680845    1.20084900753951    0.79630387445944
O           1.16382455097967    1.27761729561526   -0.58973381099296
O          -0.66851067112404    1.59460086807394    0.93501582693774
O           1.00827204320777   -0.08402737186630    1.40159105340260
O           1.57017593274220    2.26871983880302    1.60130363445150
H           1.38267881618426    3.07930204659196    1.13827812588271
O          -0.52634728351913    0.05837339789162   -2.25668063016226
H           0.06693267748159    0.73864336358243   -1.87341476925601
H           0.01992681258235   -0.75028869758446   -2.20635475110456
O           1.39376228341564   -1.44124937780262   -1.14962240768163
H           1.34630385159027   -1.97482783786012   -0.35372262444233
H           1.61864034124448   -0.54503030681113   -0.85642043258862
O          -0.88463878878742   -1.83838570878755    1.13792117404591
H          -0.11232243301848   -1.23729488687965    1.30192786340352
H          -1.25073656560513   -2.04938953307901    1.99879465011687
O          -2.04348253773226   -0.06625107126262   -0.28382937114249
H          -1.58457759673971    0.71693669671562    0.24837188864653
H          -1.51239572257761   -0.05508328471722   -1.21306224232357
H          -1.72624710712373   -0.89321444817030    0.22333291833867
