    19
        -40.91873210
S          -1.36225666917645   -0.76593680150902   -0.69488173985915
O          -1.58369063779126   -0.91468783142819    0.73654937925126
O          -1.09835613501666    0.61927618039833   -1.04519498833503
O          -0.32614762718874   -1.65771619062974   -1.19912842637917
O          -2.69908650012809   -1.20113506326803   -1.40548697524305
H          -3.36832075672639   -0.74424838604612   -0.90539946703026
O           0.10058012054129    2.03645617691055    1.00089986340440
H          -0.58374039751176    1.64621394560086    0.43181797144540
H           0.29249079346408    1.37766739374436    1.67655932818132
O           0.67886340936188   -0.62732022810199    1.90537081994970
H          -0.23874035568345   -0.75799803028094    1.52676906535904
H           0.79433668821779   -1.30793250902373    2.57109108110090
O           1.41846957356626    1.51254507729554   -1.23516496389759
H           1.22049074564261    1.99811572565150   -0.40198450879219
H           0.52441428439787    1.30659047270552   -1.57293087295704
O           1.84554149482821   -0.78183537746556   -0.38090156345870
H           1.01576356656578   -1.24934638978964   -0.81729075847097
H           1.79958133743323    0.22532832775752   -0.78290823809614
H           1.56980704520369   -0.71403646252118    0.59221500382685
