    19
        -40.92120599
S          -0.96881004031379    0.93942274153483    0.28345095142432
O          -0.88021084998373    2.28012156958787   -0.22606660945668
O          -1.25854807525707   -0.05578856185429   -0.74926940487337
O           0.14469969495261    0.51783276703913    1.11794129906045
O          -2.23172945983509    0.90386914755712    1.26089316213141
H          -2.82060854559477    1.56377886533135    0.90709073136129
O           1.16578429818210    1.59422008314158   -1.79639755943342
H           0.38418328029413    1.87356824104635   -1.28157896507673
H           1.57477311770753    2.39871069351617   -2.12220630066646
O          -0.46114137539224   -1.94271153627566    1.77923372135253
H          -0.22386020922196   -0.98753316578174    1.73917268214654
H          -1.40080692790806   -1.97645964569726    1.96788210022191
O           0.26638260504020   -2.00221964701051   -0.67685902642461
H           0.04283546969378   -2.24207030455201    0.28289384351862
H          -0.42508498450363   -1.22789273843381   -0.85311429953311
O           2.16671337985099   -0.41559779151829   -0.36495839963986
H           1.73144588588376   -0.02447732357766    0.41606904622292
H           1.18055233215651   -1.45300314383630   -0.62089679670287
H           2.01343039460991    0.25622974972222   -1.06328016589829
