    19
        -40.92115644
S          -0.15200341732162    0.09138704498670   -1.04508197802948
O          -1.49074369102098   -0.46058289039814   -0.89260901340676
O          -0.02367918540571    1.41138223433036   -0.46979354611888
O           0.83979904512223   -0.84073658967967   -0.45335795556267
O           0.18423914238874    0.18473867770150   -2.55863400847098
H           0.04687716790410   -0.73548590890083   -2.87667069751995
O          -1.64667466637910    0.18989846482177    1.64176455818115
H          -1.79466616323649    1.13677905855107    1.57463210057082
H          -1.74962650336446   -0.14619514937774    0.71960511479407
O           1.66875785350810    2.00823494751427    1.42655912240300
H           1.14235977436945    1.91899173102489    0.59589134774380
H           1.38707831339198    2.82300207007519    1.84680100006815
O          -0.41754483185656   -2.36789355391080   -2.47922328411384
H           0.28079408102217   -2.58673312708743   -1.85337038296398
H          -1.14084817157581   -2.00492543010632   -1.94432429856009
O           0.83378189585151   -0.34667150685075    1.94439808535491
H           1.27716580613761    0.57032217506374    1.92288881260479
H          -0.17497541067989   -0.17557250977831    2.00197146392307
H           0.92990897114274   -0.66993973798664    0.89855354912650
