    19
        -40.91892662
S          -0.72048623879591   -0.77931804359753   -0.96542990868753
O          -2.02818168463639   -0.17330066088604   -1.09507424220225
O           0.37639185567006    0.05995012034395   -1.37958007010086
O          -0.50243004404900   -1.29800829482496    0.39806797752291
O          -0.70321596759521   -2.05090034849926   -1.90543534950680
H          -1.56565946354821   -2.44068677115396   -1.79605264654643
O           2.04652241722831    1.23083522185156    0.46894013367174
H           2.45267394100831    0.33522402967261    0.42887807683849
H           1.61650513699534    1.31758816113631   -0.39643691344615
O          -1.84109680319878    1.92216105277337    0.42933514671062
H          -2.71143948103688    2.09836182201801    0.79343969295903
H          -1.96052776781340    1.20445478472887   -0.24417413038257
O           2.27630530889490   -1.36873059353950   -0.10055491738415
H           1.70613725407822   -1.03378475747168   -0.81290537888414
H           1.69186440754817   -1.89596279915610    0.45199555541922
O          -0.03629397874072    0.72373372102933    1.75751243652283
H          -0.23381924670558   -0.20190684577074    1.29815664194792
H           0.88957517545492    1.02005135300949    1.31968655523547
H          -0.75282485078111    1.33023884834746    1.34963135028824
