    19
        -40.92136346
S           0.85196366473065    0.23126548543793    1.06870445845925
O           2.21253157455435    0.66644980537776    0.87274728981730
O          -0.12752533682707    1.24290674693132    0.63493472639330
O           0.55022986069042   -1.05800306701305    0.48839756746743
O           0.63036600412965    0.08797244931475    2.63463814050151
H           1.24521227751254    0.70885721833310    3.01499865611570
O          -1.48648406092114   -1.26216147734315   -1.14605942033577
H          -0.71713240343166   -1.48252472265428   -0.57231745502338
H          -2.14950251635904   -0.93818152109735   -0.49704067501755
O          -2.41047698466644   -0.10105112443228    1.06710031300896
H          -2.28383759774985   -0.60346484647301    1.87373592404699
H          -1.65500884366845    0.51409510972005    1.01111620073466
O           2.04732041982697    0.04050278712642   -1.68226099827541
H           2.27427983394096    0.35632424822378   -0.77830513878120
H           2.07447879034130   -0.91891310553877   -1.62859296800362
O          -0.37144410433079    0.84161918078369   -1.82990925798180
H          -0.94132052540795   -0.08341381330814   -1.68913819255539
H          -0.34455866755774    1.20245178841540   -0.86908708218260
H           0.60090860506805    0.55526885802758   -1.97366210833318
