    19
        -40.92343632
S           1.10440592563015   -1.06091293000218    0.70731096204190
O           1.23492427202405   -1.58984449276604   -0.65117179519257
O           1.83602056393821    0.17629775465595    0.87761144224120
O          -0.28904387093503   -0.94548038926864    1.10744837321510
O           1.75122687595469   -2.13287705246486    1.66362081274631
H           2.65224541260451   -2.16924360557359    1.35809223214394
O          -1.27416723667596    1.51962620701172    1.11480869256357
H          -0.89887428313925    0.62293370413884    1.25926357531290
H          -1.18555806349581    1.98468099805755    1.94785266734766
O          -2.17623618183346   -0.56330506413431   -0.74050836869498
H          -1.63008318225545   -0.94837440344611   -0.02390723048936
H          -2.52449059514513    0.25791258765289   -0.37612352187452
O           0.63889886788597    1.84577965777483   -0.74274781872445
H          -0.13096639290664    2.00281131438172   -0.15692524946158
H           1.27456893667745    1.35705413413025   -0.16750826757600
O          -0.09218414562900   -0.09499524743327   -2.12473639576342
H           0.51279334644838   -0.79794144191702   -1.64110342985817
H          -1.02602081100373   -0.28459567319721   -1.73972088062935
H           0.22254056183843    0.82047395240694   -1.67155580934030
