    19
        -40.92007409
S          -0.07394244568196   -1.38016735856144    0.19204469535175
O           0.70867293666663   -1.78838076026921    1.33706090271811
O          -1.14115102490933   -0.43589187980216    0.58015307281757
O           0.68782790927995   -0.87125590314793   -0.91794383012137
O          -0.83670023335314   -2.67003887146693   -0.32609685978776
H          -1.02266353426884   -3.15780207789090    0.47069468277763
O           0.42274404139858    1.65506611855676   -1.58627766398359
H           0.80772570466405    0.75260880199612   -1.52103494411031
H          -0.49254525667774    1.47035555957631   -1.90150892255510
O           1.96499268085841    0.44155386745436    1.83144581595325
H           1.60148205869033   -0.45895346385212    1.64227588322682
H           2.18240178231734    0.45531246136806    2.76618055142938
O          -1.87629093389524    0.35336711448387   -1.88761275390597
H          -1.78362017128932    0.03068534213044   -0.97177325971753
H          -1.70462880897761   -0.40426464577647   -2.45024798349142
O           0.02527723032269    1.77091057463787    0.84984062368691
H          -0.58714050242611    0.94512867761384    0.84129279816786
H           0.87664645075550    1.40980496396896    1.27919247125876
H           0.24091211650018    1.88196147902428   -0.22768526975366
