    19
        -40.92136407
S           0.67285281658994   -0.47076523410416   -1.11772222768597
O           1.23304407652987    0.37004356578380   -0.08389872090100
O           1.22387849361693   -1.80237952781232   -1.16388527374620
O          -0.79909217015930   -0.47697988299673   -1.04759762969903
O           1.01575565261430    0.22417656525760   -2.50353668410999
H           1.06388742411623   -0.49930904897073   -3.12194351062583
O          -1.27257540709750    2.15645353467009   -0.83189732516125
H          -0.63590321192591    2.59658532155022   -1.39765523042628
H          -1.21344193787652    1.20645472922201   -1.04707774096744
O          -0.38839457484337    1.54487672814465    1.60620004936274
H          -0.89713823096153    2.02547290042283    0.91625120214600
H           0.42228209066770    1.26963715288324    1.12000916384592
O           0.92025190084269   -2.02430550512035    1.44430862884180
H           1.07426678894898   -2.12849966691593    0.47789489679109
H           1.62546706839295   -1.44777587528015    1.75151592697401
O          -1.29169617119377   -0.75272245096748    1.39703051151199
H          -0.98778830922345    0.27039428091571    1.64105833365975
H          -1.28793730903286   -0.71814492902915    0.37069157214171
H          -0.47771899998934   -1.34321266771421    1.59025405808021
