    19
        -40.92079107
S           1.33603118968204    0.22531036660317   -0.61119236394458
O           1.37675095661770   -0.11029202321843    0.81355021647514
O           1.66561699229450   -0.89609392182118   -1.45247991567799
O           0.08571075527640    0.88658580263031   -0.95806120446619
O           2.45526539333265    1.32252455995637   -0.83082948933690
H           3.26590986733535    0.83604040040234   -0.71799672067628
O          -0.11706146203667   -2.69743869434441   -0.70208216163407
H           0.61799786266933   -2.10009623083732   -0.96024458896708
H          -0.18787514192869   -3.35077646070821   -1.40066702468669
O          -1.83188537599459   -0.77580212322553   -0.14098356628988
H          -1.37631304600019   -1.63638068980080   -0.29591464130250
H          -1.31619213299596   -0.13955256179799   -0.67670677434784
O          -0.88613931165501    2.49448487445859    0.87192544829391
H          -1.69505664462545    2.88124066345902    0.53070964826789
H          -0.43617361750287    2.06392421913727    0.10700419372954
O          -0.81447645315592    0.16552496814827    1.93078368176164
H          -0.93483369135074    1.15446706025536    1.73576607228026
H          -1.37657936594623   -0.31907785246189    1.16525266687023
H           0.16930322601113   -0.00459234681967    1.59216651365874
