    19
        -40.91571366
S           0.65032094914765   -1.03805566606323    1.53792261967500
O           1.67462702606926   -1.01641569915307    0.46917020396522
O           0.53163786000403    0.28796881167531    2.13171353135181
O          -0.59843086021557   -1.59441286445859    1.10913677363153
O           1.24968440335796   -1.98224470053746    2.64711564758218
H           2.07236672636470   -1.55743939257928    2.87105651822243
O          -0.61730167050158   -0.43105382455164   -2.66247265756548
H          -1.28978566942839   -0.44691003078789   -1.92288724136631
H          -1.01320155008449    0.05341977014435   -3.38885899675538
O          -2.11470101756831   -0.16863793509421   -0.55029282213043
H          -1.87993228102218    0.69686348843255   -0.19371629812876
H          -1.71825909487930   -0.81476621070454    0.06939370336747
O          -0.38663004897689    1.90754925836406    0.39183354284517
H          -0.09456649065829    1.31222223446824    1.14529108133007
H          -0.24357835380355    2.80647661723360    0.69427613978181
O           1.17563601287481    0.65510372643907   -1.24160000531347
H           0.53873993003051    0.18446595263008   -1.90550054945776
H           0.59355997109572    1.27237488556492   -0.69434222301535
H           1.46981416797195   -0.12650843097805   -0.50723895811725
