    19
        -40.91855625
S           0.35531474134599   -0.78230878232080    0.78570915185656
O          -0.84218192679293    0.03024036996163    0.69475641093979
O           0.43142126533853   -1.69351439788674   -0.44096296225719
O           1.56253094403099   -0.04949460898855    0.97804345510474
O           0.17796402673851   -1.79029809548218    1.93925853646167
H          -0.76520376653292   -2.09079687565198    1.88742048221887
O          -0.33249729536604    1.82804486754988   -1.30295446965801
H          -0.69656646265569    1.34163566678093   -0.54582749043468
H           0.47202629666915    2.26558294691890   -0.96114333077536
O          -2.38602644380999   -1.93630603737602    1.54681024383447
H          -2.14423715042761   -1.10339768215714    1.10013230139263
H          -2.95157597121863   -1.70379679476258    2.28738645360120
O           1.93266694611331    2.47168299620661    0.02715142850991
H           2.03897934463863    3.04241192180375    0.79003348873950
H           1.96269387447261    1.55848396778041    0.36232471523911
O           0.53951424084561   -0.28155822546319   -2.51730511620770
H          -0.12359718872731   -0.56352370505719   -3.15172173784710
H           0.23636491773121    0.60933117992496   -2.16086404536706
H           0.53240960760348   -1.15241870178113   -1.31824752535290
