    19
        -40.91855624
S          -0.56984030148927    0.14157956451404   -1.00551379559485
O          -1.73990656148166    0.46468949336421   -0.07417534384882
O           0.63502145298079    0.75019113344629   -0.47601630126401
O          -0.46946198745659   -1.25603744020257   -1.26614417059408
O          -0.96264119275422    0.87812474458964   -2.30221331977112
H          -0.78538848937115    1.83759165225803   -2.12738337613504
O          -0.00393146391482    3.12933366536469   -1.42916535009160
H           0.68317914060707    3.54179607988429   -1.95845464223603
H           0.43310696781519    2.47014311935624   -0.85805412418359
O           1.26375385255844   -0.72538236623054    1.73988605584828
H           1.35467370454950   -1.61788967091991    1.35173416347548
H           1.26688364027361   -0.11877653187040    0.98198813176527
O           1.14757572243184   -2.91592146124555    0.15795623310549
H           0.48215362622027   -2.45609339898799   -0.38329968582278
H           1.80655989861885   -3.25108353991060   -0.45230576093921
O          -1.26666766945498   -0.47444838375688    2.20847755969103
H          -1.38628778921224    0.19932729110271    2.88184503878484
H          -1.61169181622835    0.04863935846494    0.86551767859863
H          -0.27709075469163   -0.64578327922086    2.14532100921208
