    19
        -40.91893399
S          -0.52440200544567   -1.29827920883269   -1.02838456973496
O          -1.95388548507011   -1.37239494527511   -0.86162746445018
O          -0.03715857457320   -0.06850075344808   -1.62199739610584
O           0.19509069395407   -1.60470316249948    0.21735672075476
O          -0.13020121897364   -2.45604870509498   -2.04024553992261
H          -0.77156291090188   -3.13393446782571   -1.84975004184575
O          -1.90129815385897    1.09134749059658    0.08189230269443
H          -2.10532476099927    0.17132126562072   -0.18294667089327
H          -1.41387493795861    1.44898557463068   -0.66629407152595
O          -0.50446104150848    1.27766105226248    2.29332441441663
H          -0.97652548189562    0.75528906913557    2.94479581237040
H          -1.07927259424604    1.29152366397485    1.48124716549882
O           2.01971881670278    1.29207989093817   -0.82994335366650
H           1.23178091482431    0.84654570622920   -1.23647546977211
H           2.77865552486300    1.02705932711634   -1.35272686482592
O           1.53647348361900    0.10994749128242    1.36337329970874
H           0.77720856583032    0.64232897993596    1.82553160097746
H           1.00903095138952   -0.69525864632985    0.89527490492736
H           1.85000821425342    0.67503037754030    0.56759521140359
