    19
        -40.91855625
S           1.08641157070348   -0.13137478796976    0.39789487979782
O           0.52386969866833   -0.20202533796827   -0.93665620330607
O           0.84105001887255    1.26756689428452    0.96675452905684
O           0.64320769107154   -1.15169371668984    1.28888446395373
O           2.62367849123888   -0.18074935546192    0.28572262581106
H           2.85055507855316    0.37076551317748   -0.50606019391225
O           2.59312493161120    1.04465685766640   -2.00484345282379
H           1.67925364607456    0.71332653207290   -1.92262579532677
H           2.99270614297117    0.58488053923222   -2.74736094257151
O          -2.18648862738363   -0.21903543582487   -0.56725796334282
H          -1.28534160054812   -0.28364154574005   -0.92243390873482
H          -2.29401413421683   -1.00865651594915   -0.00118726626444
O          -1.81590914129638   -2.30133196547476    1.11830349051223
H          -1.67519469533035   -3.22597075200960    0.90795065537441
H          -0.94131493775705   -1.93407914982366    1.33601621184130
O          -1.63313491891295    1.69354836190769    1.08240822846692
H          -0.16884495134231    1.46540569302648    1.08308615652336
H          -1.85140759159864    2.52947179292476    0.66372351913291
H          -1.98220667137954    0.96893638861801    0.47768098581187
