    19
        -40.92071425
S           0.15704042742827    1.19763246562519    0.85932649412816
O           1.05272429444994    2.22917808090177    0.38922993705988
O          -0.95362819443292    0.96874499146569   -0.08621928729406
O           0.81136438834691   -0.04880628021623    1.18377847215502
O          -0.51417016648197    1.74225461421392    2.18193957618710
H          -0.55885395251701    2.68424948821224    2.04454208024127
O           2.37204119036270    0.55389395527266   -1.12941712657509
H           2.00051849319892    1.32161473310980   -0.63383346866556
H           2.77253763545102   -0.00596135841886   -0.45779071914008
O          -2.40337182031912   -1.22461760442874    0.44568497114812
H          -1.97701599316030   -0.34888566537955    0.35860096474959
H          -3.24403470551379   -1.16685815502068   -0.01083524661742
O           0.01429913054345   -2.23470965165784   -0.03622326836313
H           0.41734344844166   -1.61201991714018    0.61207777509795
H          -0.94266352188603   -2.19834004398705    0.17482435257179
O           0.16029836234704   -0.50255611145007   -1.79786444210206
H           1.11589524152502   -0.13136501630818   -1.69785850524581
H           0.11733489375752   -1.38762722602271   -1.14745446211751
H          -0.39765915155291    0.16417872119094   -1.25250809723134
