    19
        -40.92267737
S          -0.43108868246558   -0.68014370536351   -0.69585734767233
O          -0.98542692327206   -1.04510378347172    0.58787337419005
O          -0.37320161711462    0.79609980374514   -0.83837023099068
O           0.88878941636765   -1.24808765072503   -0.92744771593360
O          -1.39922300970236   -1.18377059999535   -1.80217666630536
H          -0.93675039031113   -0.93095467225795   -2.63195687400129
O           1.85585260714947   -0.54578253847247    1.40568648673285
H           1.40017918545585   -1.14126545723649    2.00709905298310
H           1.65437631513151   -0.88417154595032    0.50075700113501
O          -1.47188475750129    0.69216789272572    2.47259927022934
H          -1.40343757670290   -0.07386762670253    1.85072991880186
H          -2.33635728815356    1.08165979740594    2.32755659199061
O           0.45858371775887   -0.19509439012526   -3.36836358779980
H           0.37027569385534    0.70705459235638   -3.04434524283636
H           1.00587540401689   -0.65440875713719   -2.71117455060947
O           0.55875550251823    1.63480886964090    1.27168304224282
H          -0.23582223450563    1.42453263548684    1.88422125553109
H           1.21793812572319    0.85705926557220    1.42230301170242
H           0.16256651173705    1.38926787051256    0.28918320063095
