    19
        -40.91103796
S           1.29181203186304    0.65959717747336   -0.47744855781082
O           1.03734403760719    0.30576538718109    0.93546684577439
O           2.00654105726483   -0.41204741338706   -1.14109193273772
O           0.07848425979010    1.05287731168999   -1.14744783109929
O           2.23681108839296    1.91213075955988   -0.43359589572986
H           3.01498414465496    1.60453490337314    0.02202712677000
O           0.31363904782532   -2.35745528911394   -1.14739509789402
H           0.98327919249799   -1.62963820247675   -1.27054109859157
H           0.81381734047646   -3.17551840405013   -1.10068768459606
O          -2.23144031315950    0.36979349519785   -0.22717536940806
H          -2.81075091333966    0.14651624135588   -0.95841351723735
H          -1.41038481347198    0.76224018658490   -0.62851391124274
O          -0.89587979824941    2.08412381328818    1.93710027210385
H          -0.12246777386837    1.57312145323222    1.66742731854155
H          -1.61414112624449    1.82071005511833    1.35675082221242
O          -0.77423720044146   -1.36946437311550    0.90455871018220
H          -0.41825804908038   -1.90903516573149    0.09762120980579
H           0.01815328581151   -0.67963598879439    1.07350022999204
H          -1.51730547833003   -0.75861594738798    0.53785837096820
