    19
        -40.92136405
S          -1.29121853644332   -0.48338544605364    0.14601979819427
O          -0.70153035490817    0.59890894007981    0.90142069968564
O          -2.35529633043385   -0.07921879644196   -0.73907688826195
O          -0.25267985020902   -1.26468452994012   -0.54853456627472
O          -1.92088001566736   -1.48535192811842    1.20483357284203
H          -2.64719003183732   -1.89074595165809    0.73964500793882
O          -0.86277052233595    1.89731833431755   -1.63909487182837
H          -0.89255739084387    2.49467284059387   -0.88649952022841
H          -1.53698869613057    1.20647297091656   -1.44747388186081
O           1.89443096747947    0.94043852426275    0.80297942175418
H           0.94403381405241    1.03257208310471    1.04301487817942
H           2.11103956009817    0.04117751374058    1.13498890111029
O           1.49614071566965   -1.61149608831399    1.45823730579052
H           0.97750917329268   -1.75171407554581    2.25231269898439
H           0.86807689711575   -1.66239714924499    0.71318315084023
O           1.25443647005534    0.47598339652604   -1.54512386970164
H           0.71986328914957   -0.36284717227569   -1.28965977779666
H           0.50832278600200    1.15436099481720   -1.72358272728779
H           1.68725807587213    0.74993552921815   -0.57758931206764
