    19
        -40.92079117
S          -1.06831793280426   -0.86368545787435   -0.56575414145023
O          -1.67297781099119   -0.19217476127228   -1.68722225476745
O           0.37101945566327   -1.05089987587942   -0.68576674652518
O          -1.41369481605113   -0.24234440916000    0.71423234503522
O          -1.67013488637300   -2.32667907089277   -0.51514888424354
H          -2.60945442927378   -2.18033104640787   -0.56923600402876
O          -0.79012546055399    2.28184627793574   -1.39789793516358
H          -1.21480467033362    1.40336676206685   -1.50671909221109
H          -0.87011912411301    2.72367975250983   -2.24542120643871
O           1.61656539218301   -1.67118368986279    1.53765450089725
H           2.54757507697700   -1.78650333960386    1.33716405516333
H           1.14401133080601   -1.64361760636765    0.67233431543537
O           1.42028865752201    1.36736212506250   -0.29186380437060
H           1.24801654317316    0.47324546032784   -0.65075246158997
H           0.70480486444165    1.92032810112505   -0.68530004132061
O           0.56100271183028    0.62778839383862    1.92736583856615
H          -0.36350694135511    0.31748963103399    1.52810055576880
H           1.05946901106753   -0.25257238913673    2.00971585471980
H           1.00038304818473    1.09488514255583    1.07451509652389
