    19
        -40.92343667
S          -0.52223998491064   -1.40062636698645    0.78132811331513
O          -0.38457853749338   -0.53504124484367    1.93313526058332
O          -1.23472161135546   -0.76290722786872   -0.31443220063383
O           0.76711614849721   -1.94047677391594    0.34710543005048
O          -1.39551319602075   -2.63809994214780    1.21485828589762
H          -0.87746562369983   -3.02546359434724    1.91345252961812
O          -1.23292159600981    1.89189845943591   -0.28555164797986
H          -1.96737418555944    2.28854564341457    0.18492790573879
H          -1.37170218996739    0.92000851728367   -0.24264907132791
O           1.05603649530871    1.46372842942395    1.05395489851799
H           0.32000418440525    1.90224282061487    0.57798689516872
H           0.60572178241983    0.76991207481034    1.59232035082982
O           0.13093267581311    0.30767854286327   -2.34189662812349
H          -0.46708792645521   -0.25558637128597   -1.80784619986031
H          -0.22300370681373    1.19981383017943   -2.25654218170749
O           2.01849370297970   -0.05326499181457   -0.67301562120328
H           1.74884309516765    0.67370867439992    0.06298020589459
H           1.62761377223618   -0.93330289881178   -0.26493636593452
H           1.40184671148491    0.12723242967038   -1.47517994887022
