    19
        -40.92025499
S           0.18809591288098    0.85172411911400   -0.25908581846199
O           1.55983704773149    0.41281846490467   -0.01056907244752
O          -0.58033898233662   -0.18890242886490   -0.92453278868152
O          -0.48420521542809    1.27648852239980    0.97286088426702
O           0.23907291581063    2.11066804652340   -1.17041218287872
H           1.00500114203207    1.97327123454212   -1.77297904263260
O          -2.72301136055404   -1.15015509676080    0.17335820127157
H          -1.97009300721812   -0.82975473934695   -0.39038306998233
H          -3.44224168360988   -0.53035042241560    0.03730861438489
O           2.52536788139923    1.39219250123941   -2.24559382051953
H           3.26278277522598    1.98715324438954   -2.09037927552443
H           2.43101171469139    0.84715840369428   -1.43863519296282
O           0.77088185012951   -1.88317927329851    0.98781138214767
H           0.40641651965429   -2.28244025282845    0.19181117054852
H           1.23253766650182   -1.07012755079806    0.67588493998727
O          -1.18867330839849   -0.76409015712771    2.14805225549674
H          -0.38686850180651   -1.33902324358475    1.84569800864539
H          -0.89988599255358    0.20223113742146    1.77341553824301
H          -1.94568737414688   -1.01568252918681    1.49636926911505
