    19
        -40.91966063
S           1.31792660234693   -0.98205012529219   -0.47995418757208
O           1.88729053779882   -0.32389580924826    0.68564480230299
O           0.37395397894932   -2.03483789576046   -0.07431448107878
O           0.72200026820390   -0.06336144663562   -1.41814604822116
O           2.49679542203481   -1.71899810027387   -1.21844527505870
H           2.84425925175202   -2.29441304114735   -0.54389326267236
O          -1.93645980225123    0.50880967537471   -1.43859783023224
H          -1.17169390816987    0.13585382853753   -1.90757225255448
H          -1.59727116767033    1.38605913511010   -1.13523529511251
O          -0.28416278634653    2.31611871299110   -0.45044119552971
H          -0.20453725914550    2.17851201567638    0.50049023496371
H           0.34662937043494    1.70058779900923   -0.85856841038203
O          -0.06267481218290    0.77196142281072    1.93314665939707
H           0.75682668156696    0.39603175206066    1.49780634657739
H           0.08542127995029    0.71809066547145    2.87917826866799
O          -1.64390970810464   -0.81607742139995    0.65471026177636
H          -0.84889076422642   -1.45244007385701    0.34791821933847
H          -1.18070734121705   -0.15492979783428    1.26231263468842
H          -1.90079583378159   -0.27102127568197   -0.23603918934080
