    19
        -40.91855625
S          -0.03825396054291    1.13126278705578    0.27295874507606
O           0.72253350593720    0.65966511315608    1.51377950200479
O           0.47172975612314    0.42724927779039   -0.88754323605853
O          -1.44969306831755    1.04639596502313    0.45187005098790
O           0.37746012150634    2.61274333474210    0.17007164238000
H           1.30256957850627    2.60542656355835   -0.18583545161717
O           2.57873604695012    2.00954861958641   -1.07085042966507
H           2.03270808548532    1.21068851587322   -1.19493146916607
H           2.70743815108357    2.39928773830193   -1.93911095983284
O          -2.91856641083343   -1.09742963255346   -0.35086224910481
H          -2.51348854912008   -0.30497948152922    0.04301528726048
H          -3.51522192171218   -0.78446952635742   -1.03284141695306
O          -0.43713132660529   -2.13891847414184   -0.61984121546138
H          -1.40297163608501   -1.99323000550954   -0.58192644287325
H          -0.06764656571240   -1.30085577281585   -0.94159478932329
O           0.36689403251864   -1.80996554981406    1.81549092546958
H           0.55987024924862   -0.34454944228248    1.70788481718541
H           0.01548891503386   -2.06661465202688    0.90815697178328
H           1.20754498653713   -2.26125534805652    1.92210972790691
