    19
        -40.91317297
S          -0.63340955566558   -0.80947397078533    1.25273944931535
O          -0.52831710157733   -1.69425209283974    0.02177077115774
O           0.59925942168829   -0.08343342902534    1.42972292494242
O          -1.83918555479602   -0.05995350784834    1.25024677511076
O          -0.72863986189676   -1.83883650695912    2.44434818765814
H           0.15062983755709   -2.14873073618752    2.65452767252618
O          -0.31948557308635    2.48375270938463    1.11421276920278
H           0.18607553273772    1.68882090880360    1.34098973121285
H          -1.16440697339104    2.39073551835167    1.56169515688992
O          -1.03403665177485    1.15406844304182   -1.13557814640526
H          -0.72716244512986    1.86117745397382   -0.53431237996835
H          -1.60586763004059    0.60230197769904   -0.59189924547894
O           0.97423027131103    0.24841030856531   -2.64391289854614
H           0.58236529546032   -0.16379223070551   -3.41560037646480
H           0.23113968508289    0.65687446994380   -2.14424078525939
O           1.79304641152750   -1.28325440397047   -0.71512141360313
H           0.47053304191717   -1.62272590854719   -0.35301331990166
H           1.62207934641528   -0.72967804736249   -1.53202012927110
H           1.97115250366304   -0.65201097552990   -0.00455475311543
