    19
        -40.92115648
S           0.24063271181894    0.17472114289066    1.01763402088822
O          -0.55318314900403   -1.02956413181788    0.92199777769680
O           1.64697367266279   -0.05352420036629    0.71681753034744
O          -0.29349499833767    1.23129773656352    0.12282232280668
O           0.11905507277175    0.72488472910778    2.46524359714781
H           0.70239765530384    1.51630259955796    2.45487392922802
O           1.12968188561363   -1.44402394873464   -1.44330230865855
H           0.84204258217588   -2.27558033389867   -1.05761564291510
H           1.50283984137008   -0.93179936271672   -0.68662441307712
O          -2.58283049532277   -1.30135684734497   -0.69788488810610
H          -1.96077045198831   -1.22228170503322    0.06482876393493
H          -2.76801936904074   -2.23586516634921   -0.80857646099692
O           1.79582405484026    2.51727988229477    1.53750834326886
H           2.18917614261091    1.70830256296680    1.17404067954549
H           1.19191241121861    2.83703597862959    0.85906733509043
O          -0.85294350156092    0.08142875763944   -1.96505666318592
H          -0.64231232843216    0.71613461245351   -1.09363052482865
H          -0.05097805324815   -0.55640302345035   -1.93816237489422
H          -1.65600368398850   -0.45698928254903   -1.64398102330001
