    19
        -40.91892660
S           1.06220059235494   -0.93280226637302    0.24066060818155
O          -0.15541655601155   -1.00656076195351    1.00943245511611
O           1.10691593889001   -1.81274842496948   -0.90723030231114
O           1.36344693842022    0.46009387529894   -0.14003173641931
O           2.23777492202307   -1.36683382146687    1.20519165057361
H           2.96764681680314   -1.55516161648800    0.62241322007685
O          -0.92141616551719   -1.01782185045893   -2.32231248681110
H          -0.19457354643704   -1.44332145219720   -1.79905789799767
H          -0.70876994225221   -1.16198310233819   -3.24699790167660
O           0.21839454150941    1.34568846918060    2.28280795705917
H           0.20589411897667    0.38871893423209    2.11400668723237
H           0.92171417990019    1.68301643319302    1.72020298582253
O          -2.03203972392983    0.99844561853011    0.88491811191895
H          -1.41253245047264    1.40333364848373    1.53347765542354
H          -1.86962065116883    0.04726946356516    0.98830593176385
O          -0.71696837163667    1.26500848403827   -1.22540611900205
H          -0.92055795451266    0.42350363659415   -1.77149351570458
H          -1.37263178586177    1.24087661544208   -0.38462437878527
H           0.22053908890530    1.04127811768633   -0.80426293441372
