    19
        -40.91638449
S          -1.51924160955977   -0.51472706069933    0.49830668439792
O          -0.42826268550792   -1.46184621076319    0.18362909002003
O          -1.78573213311785   -0.45767056742441    1.91203747782671
O          -1.29993188685203    0.75401853216695   -0.15195209735759
O          -2.81685601228622   -1.13458124506447   -0.18043516972250
H          -3.14285439283631   -1.75995767128521    0.46030344101934
O           0.79349485589775   -0.05118347836056    2.30926851184967
H           1.01790960480279   -0.98054694861342    2.20901073827263
H          -0.18451317661995   -0.03804530143088    2.29341534751662
O           1.22653689464686   -0.51167178937852   -1.36687619885379
H           1.68358536816333    0.14968452263500   -0.73142332799288
H           0.50459110727533   -1.00412192248139   -0.72481444268256
O           2.14536578233516    1.11353460494954    0.36787908847147
H           1.58074470587203    0.82500179261375    1.13028747255291
H           3.05324311204091    1.07609038167004    0.67538760153072
O          -0.40995179939079    1.02199190882715   -2.55359576545211
H          -0.12815784973737    1.93636640822760   -2.63126327202565
H           0.64296146913679    0.06675725237054   -1.98757642050704
H          -0.93293133404746    0.97090678194781   -1.71158875879092
