    19
        -40.91638450
S           0.94043725968186   -0.35483297809863    1.34577597677510
O           2.35191336296933   -0.09558083312943    1.22982435340465
O           0.14439662528834    0.88697000536082    1.24348152400389
O           0.41460144982132   -1.37424449374766    0.47115524877936
O           0.69912732878242   -0.88279796605367    2.82626113933742
H           1.33293613864634   -0.40524266098367    3.35361114699251
O           1.84975893363667    1.25620040697430   -0.98276392974588
H           1.56332424568133    2.04272002589178   -0.51006069861801
H           2.18544684990279    0.66378132844701   -0.28040190765221
O          -0.28826884961002    0.56326804955478   -2.36169592308123
H          -0.33183315596290    1.22679192373463   -3.05309930379518
H           0.58401171520781    0.69079978944607   -1.90760518606108
O          -1.76594242760671    0.65830813094155   -0.28751265391024
H          -1.25954787214060    0.64576465675362   -1.17831291247227
H          -0.97401558521383    0.80448005440310    0.43853529146902
O          -2.09453363066760   -1.82628322243968    0.10856989690645
H          -2.06213848123009   -0.31524934536621   -0.12937376104730
H          -2.15525118310481   -2.36076510494364   -0.68651756131394
H          -1.13442274408048   -1.82408777666673    0.36012926002394
