    19
        -40.91638445
S           1.07522783109614    1.20508074776903    0.46153030897159
O           1.26502546727907    1.39007035764905    1.87669707126099
O           1.52859682782485   -0.13036644638092    0.01721040357070
O          -0.24776808717906    1.48959842757290   -0.03785877955142
O           2.04578461457476    2.23612655664137   -0.26226896253822
H           2.80929188668133    2.28044563048338    0.30606539787665
O           0.00143227864972   -0.89512648625665    2.27269981775203
H           0.77243836588391   -1.42871426597891    2.06071591866612
H           0.33925558911692    0.02291472982547    2.27596597041339
O          -1.76473098710674   -1.62939406511356    0.45741587037763
H          -1.21560343764343   -1.24966013769581    1.19057095069507
H          -2.02304496436032   -2.50845899910000    0.74152779109324
O          -0.10810379711201   -1.24437015100718   -1.44066338230911
H          -0.81946412584756   -1.47439610285150   -0.73992971454695
H           0.67469493962771   -0.78394732552684   -0.84808103361976
O          -1.06637103311489    0.89731453705512   -2.40663166964780
H          -2.02370705940674    0.96320191328181   -2.38028014731133
H          -0.74334712885791    1.31714742785984   -1.56730686580455
H          -0.49960720009802   -0.45746635822638   -1.97737894536878
