    19
        -40.91638422
S          -0.72046506485095    1.42936406833606    0.50788543809797
O          -0.63196700627892    1.05382492078436   -0.91936341074998
O          -2.06844198711759    1.32985044736378    1.00399477865483
O           0.28617619545079    0.74468768514748    1.28154612667705
O          -0.33490372698602    2.97144643425417    0.55729460893653
H          -1.15083532843709    3.42529006446203    0.36706047251792
O           0.11034785543699   -2.43611237554654   -0.17345732765088
H          -0.73597150913979   -1.97680484746747    0.06310757023928
H          -0.13890156162373   -3.24343719289642   -0.62766504873660
O           1.22927277070107   -0.48677839692098   -1.37506196829486
H           0.84634279738403   -1.33506181389540   -0.94658193550308
H           0.42716116660506    0.23158117873877   -1.24727066001273
O          -2.16806144688368   -1.12429887270365    0.03327784573259
H          -2.20826527214728   -0.30493407592760    0.56618868458599
H          -2.33845629120792   -0.82917057323111   -0.86555890276551
O           2.71048595726679    0.36601226272445    0.50005564258605
H           1.86000430349732    0.65432818580587    0.92275048892556
H           3.07122864475015   -0.31283955163145    1.07499506198422
H           1.95524949347480   -0.15694754725964   -0.72319747528162
