    19
        -40.91836649
S          -1.88793163724754   -0.51635066162877   -0.23897045458310
O          -1.49971839900818   -0.87448163753392    1.13442963889748
O          -2.06202501498165    0.91831691072303   -0.37277433953991
O          -0.99514464039750   -1.08189842449646   -1.22403889452237
O          -3.30286646511600   -1.17481027179240   -0.46924321552332
H          -3.85995010343985   -0.67475604560928    0.11950862871033
O           2.46898983705234   -0.88577470712918    0.68229398582171
H           3.33307427766586   -0.47764727482559    0.76335088902601
H           2.13759521000969   -0.68509159342831   -0.22101915384826
O           0.28450488363143    1.96149097557713    0.00427822967378
H           0.77751308435292    1.51737790411804   -0.70566764361523
H          -0.66752789066648    1.75836992526459   -0.17965856726576
O           1.32521029522746   -0.03704360662979   -1.58734917877906
H           1.59094799859708   -0.22648110157342   -2.48877956374865
H           0.43049500296500   -0.46562265011938   -1.47907739096132
O           0.52407154091740    0.31445613330999    1.87466690548311
H           0.46976519801191    1.11917760907002    1.19156550153150
H          -0.36688056487601   -0.23867225844523    1.64746221056730
H           1.29987737728152   -0.25055920482739    1.54902240269650
