    19
        -40.92079023
S          -0.71874872582351    0.45305949562699    1.21925278742836
O           0.28591380732857   -0.58372773066484    1.46433356723411
O          -0.37283579537296    1.25359341294297    0.05293583866299
O          -2.05984613847657   -0.07128742925411    1.19985542806777
O          -0.62015090355303    1.44969797157295    2.44477100782157
H          -0.94881157766011    0.93459889878257    3.17501608438983
O           2.18930982260473    1.69984085391732   -0.28619781010886
H           2.29771008938823    2.24771226292001   -1.06628522140798
H           1.22882627992664    1.71639253689589   -0.06240736136823
O          -1.90804582619563   -1.91683576687838   -0.68569427679420
H          -2.79877275844329   -2.10206782648348   -0.98927274721425
H          -2.00102421082156   -1.30635590678431    0.07753235545254
O           1.88168009812907   -0.83822808520673   -0.41066833437643
H           1.27740044950849   -0.84912837665001    0.45294927169312
H           2.24543515917785    0.10924287283161   -0.39944760342297
O          -0.06516593015762   -0.50147530636891   -1.92994996056929
H          -0.73533984481978   -1.17165518893049   -1.65794472180055
H          -0.31561738934614    0.29761563367380   -1.42345239285119
H           1.13808338471190   -0.82099233192817   -1.17532593086726
