    19
        -40.92161564
S          -0.54374512268095    0.65260907017366   -0.64358968926026
O           0.77374039686270    0.55383264016578   -1.19491155545443
O          -1.44129171745835   -0.41788571796775   -1.01154746960748
O          -0.49412791458901    0.74882573998002    0.88120759001848
O          -1.16618371410443    2.00551199426922   -1.04688793223807
H          -2.08557160875907    1.96860314134013   -0.68011959317882
O           0.46954764718241   -2.27256424116211   -0.54457283646627
H          -0.35870380636444   -1.81604185481368   -0.76872602280581
H           1.09933144039301   -2.00029482213049   -1.21678659743692
O           2.98759261812276    0.35282751600326    0.33458888951422
H           2.26737302461296    0.55650618196782   -0.28981750456496
H           3.78574827279719    0.24985035166554   -0.18590316856100
O          -3.31962559649082    1.14652739329122    0.12809585668580
H          -3.01980915496221    0.31723009760224   -0.27784331853060
H          -3.09249139448744    1.09253628155850    1.06075428957220
O           1.09586978140674   -0.96590403484621    1.69211106939818
H           1.94581175639428   -0.55046244743046    1.43970328505219
H           0.17989437415135    0.02662792593417    1.32136640702502
H           0.91664071797344   -1.64833522561688    1.00287829083640
