    19
        -40.91885160
S           0.94875817773899    0.77243107029722   -0.10266620685833
O           0.10710880285385    0.00011156645144   -1.06854533020815
O           0.08756531421007    1.45894591489819    0.83693867415288
O           1.92286105893371   -0.09228619163664    0.51551909519642
O           1.71455541674985    1.82320001381034   -0.95549070290644
H           1.00691782757739    2.25824356315957   -1.47266735323069
O           1.13529259149296   -2.42864158237256    1.31100472650603
H           1.53282527262712   -1.53621954492843    1.12981326394218
H           1.69916367867488   -3.06563307611654    0.86715058250434
O          -0.46635295894198    2.20665377016987   -2.40257595080152
H          -0.34276479468651    2.10454156787254   -3.34909079930736
H          -0.50898234331009    1.30715918562460   -2.02560651818567
O          -1.80256354787410    0.04806922436841    1.86980999170165
H          -1.05843417028871    0.65621301722390    1.60150881407434
H          -2.61354331672105    0.53296032917352    1.70270438312928
O          -1.05130658881475   -1.73362152035978    0.25691111504188
H          -1.47941059769289   -1.10986922285704    0.96922179779164
H          -0.59622294460808   -1.03729514824286   -0.40876921602823
H          -0.23546686792414   -2.16496294652038    0.72482962348874
