    19
        -40.92343665
S          -1.55783309224352    0.20010728304014   -0.61588821959129
O          -1.06013277052697   -0.76972384971645   -1.56801684755506
O          -1.26367213215752   -0.16713986636258    0.76026389372988
O          -1.09731615507446    1.55469638499306   -0.92466601138264
O          -3.12814492912117    0.22893743000067   -0.73933244339867
H          -3.26169344022447    0.48976785582802   -1.64528730872935
O           1.53302532780639   -0.71634901231545   -1.22641257516541
H           1.52649872603479   -1.24955180946253   -0.40407395404536
H           0.61276152565691   -0.80691717137352   -1.57127965451885
O           0.82000145872607    0.93204174829834    2.01406159589894
H          -0.08890554018817    0.66787008411929    1.76064583036135
H           1.27096586851826    0.10692274359501    2.22464864332094
O           0.76563566528409   -1.84728509840578    1.08632466160614
H           0.52370567782945   -2.77435829512129    1.08366788757598
H          -0.07253989821465   -1.34403320008980    0.98582509865667
O           1.32587456317377    1.61963426444038   -0.38377300553933
H           0.32721142173359    1.74254794171432   -0.66865743819316
H           1.26370307459157    1.46988478101473    0.63114524476790
H           1.56085462840115    0.66294780584061   -0.79919538782401
