    19
        -40.92136397
S          -0.10552215285859    1.32297836448459    0.40096373225989
O          -1.01437177874382    1.72688448463595    1.44498774354299
O           0.91165218232125    0.38800172070831    0.82632794372313
O          -0.81092051494340    0.82315102210811   -0.79234888219397
O           0.65402377029714    2.62929041233256   -0.08696568394197
H           0.03732069286218    3.33567212480980    0.08311206007933
O           1.19041916154493   -1.85917182862408   -0.49080402112233
H           1.36397863104290   -1.42936151919767   -1.35737535471384
H           1.32849166757858   -1.12001193201045    0.14495013704268
O          -1.32789567743621   -0.79173215426163    2.15408518717143
H          -0.48309010714550   -0.95961018451258    2.58089705404425
H          -1.35561887487431    0.18135648338087    2.00972170503523
O           1.28250834567159    0.09085872254865   -2.30422706334791
H           1.96636368935313    0.74761816482049   -2.16224683786112
H           0.47266246442744    0.45203750509227   -1.89675796276783
O          -1.26214345258640   -1.58898202631791   -0.26948091824121
H          -0.21441836479599   -1.88077854275219   -0.39978215354105
H          -1.39238427913968   -1.44394262556920    0.73553469799888
H          -1.24105539258141   -0.62425819167013   -0.62059139315111
