    19
        -40.92007395
S          -0.87856471984138   -0.47346921327057   -0.97558321708104
O          -1.05759287373475   -0.69760746686186    0.47306126557917
O          -1.73938497764917    0.58489025548339   -1.45421465603311
O           0.51401445968505   -0.32419567012858   -1.30693259707843
O          -1.37440921697323   -1.81373384407944   -1.66239171852793
H          -2.31669554036625   -1.69485695071916   -1.73501285260168
O           1.06721921007930   -2.30069794154654    0.88396294681763
H           1.18716789582805   -2.76903525847019    0.05538989953214
H           0.20441873717521   -1.85131621427062    0.81283834740873
O          -0.58772390612877    2.63718199313626   -0.33342227917508
H          -1.01395028219756    1.92121592593917   -0.86692793129331
H          -1.25347065304438    3.31782845346970   -0.21225002410072
O           2.24208915772045    0.07111638192282    0.63135588584961
H           1.85791776857680    0.05121973864967   -0.27354990641065
H           2.09930667151659   -0.85376648904397    0.94059669731730
O           0.23100476547001    1.15607012432172    1.57164270094182
H           1.21625662575464    0.76744347738867    1.25778023192967
H          -0.01493156316692    1.88953471131343    0.90750086989822
H          -0.38267155966235    0.38217799739692    1.28615631679162
