    19
        -40.90976803
S          -0.52690905387612   -0.99685010184458    1.59974228507813
O          -1.51291993117402    0.05225906445609    1.41693732558648
O          -0.54724085998835   -1.97103151356395    0.52376613214055
O           0.81368539432213   -0.45441788884356    1.82727178345208
O          -0.89685123484244   -1.76472987441354    2.92678078315036
H          -1.74345589353209   -2.15184438715074    2.72515670485050
O           0.81871729156927   -1.21418370918375   -1.52449436091274
H           0.23696937016126   -1.56656694029916   -0.79551905283528
H           1.43039410244395   -1.91831238535168   -1.74719025128837
O          -0.69568144694075    2.01558560406059   -0.03558613972282
H          -1.10882768302337    1.28591646051389    0.50385358622634
H          -0.80391046101893    2.82179867166109    0.47226684250692
O           0.03644072226396    1.28121578850859   -2.71525203011285
H          -0.57292076387270    1.61752266614979   -2.05124353532454
H           0.02576665407871    0.32207470135165   -2.64234980248947
O           1.55126640095558    0.81019037538352   -0.15144661515074
H           1.34747751379384    0.29180837169987    0.76197240796360
H           1.39226855667720    0.09080823468482   -0.86109898147185
H           0.75573133198964    1.44875685216283   -0.23356706164015
