    19
        -40.91892656
S          -0.99340178409230    0.97546575344273    0.34321007250085
O          -1.95419988879934    0.30643461204790    1.19355975155538
O           0.33622872426939    1.06839767962590    0.89307814045761
O          -0.96668916682975    0.38058621147343   -1.00636021116333
O          -1.50700906760231    2.45690349260964    0.13777569208180
H          -2.44920239101627    2.36975445138957    0.02666996913075
O           2.37630905980333   -0.51201117975676   -0.05812027539771
H           1.99288253749026   -0.06613077550486    0.71374020020039
H           2.39198563024181    0.19613150232201   -0.74137357684064
O          -0.91057817103773   -2.05396119263921    1.49130852041738
H          -1.62895233688142   -2.68164993845441    1.59615519982504
H          -1.32269004754995   -1.15238783361389    1.50901284864691
O           1.53719208148563    1.59693788912727   -1.46709496733142
H           0.80188561125609    1.35418179190812   -2.03749013649916
H           1.13467849192363    1.73886218765589   -0.59403209958850
O           0.29779375210158   -1.73450402227770   -0.72106880701791
H          -0.12713627533334   -2.02966566446398    0.16214863094988
H          -0.26315673414482   -0.87998059694126   -0.96878447820496
H           1.25405998480638   -1.33336436794128   -0.47233447375186
