    19
        -40.91899941
S          -0.51018706546870    1.06804592926473    0.27882106881256
O          -1.20333105346291    0.12349379052308    1.12950094010250
O           0.92264550233550    0.66675694220556    0.14894346395176
O          -1.11168142383239    1.21004949018155   -1.02734174920451
O          -0.50497024859065    2.46658309667780    0.95298710071547
H           0.07472892713974    2.34280417945809    1.73342272287861
O           1.45894576070693    1.69410178410048    2.52974849868423
H           1.50228126572728    1.12708489129774    1.73734448634353
H           2.24919077372355    2.23924140142943    2.52492442930113
O          -0.77155516663893   -2.37351709307939    0.66502879768990
H          -0.97082160103138   -1.45065788188779    0.98669482222119
H          -1.59075987545241   -2.70329380271114    0.28871558509500
O          -0.72761785153269   -0.70688333213106   -2.70749691729691
H          -1.00229748971498    0.04752367926418   -2.11689877028910
H          -0.43637843817736   -0.30578580858611   -3.52888343643085
O           0.93124054187625   -1.52770028634369   -0.98358786542717
H           0.30787449938815   -2.03325446650284   -0.31994758366883
H           0.33247751924773   -1.30105632926886   -1.79206474625717
H           1.05021542390081   -0.58353617383562   -0.49991081726648
