    19
        -40.92120616
S           1.24321001963028    0.14757134749056   -0.57955370890387
O           0.22041161099498    1.16156405469463   -0.38032092912631
O           1.03121927599004   -0.99538129139431    0.30913602108318
O           1.47492873028026   -0.22939971137284   -1.94676226854478
O           2.58818335622852    0.83428372687296   -0.05950422878258
H           3.27712543430133    0.41020667200363   -0.56233098947567
O          -0.97655009581530   -0.75929341784704    1.73477165270055
H          -0.12410710775282   -1.01462914081350    1.17191994236519
H          -0.67270302687006    0.11214354318322    2.15569163065993
O           0.15042393105771    1.49055327796956    2.21701515099685
H           0.21361013359268    1.57432343458235    1.23759782234539
H           1.05240913282316    1.47788076162447    2.54256045414310
O          -0.92389752634283   -1.38842950759224   -2.08865630125158
H          -1.12361546292769   -1.54604032277383   -3.01385330046324
H          -0.01613167113310   -1.02854122212852   -2.06212781854312
O          -2.21627387501269    0.06186350877240   -0.26874050332627
H          -1.99038813908948   -0.59941666727658   -0.95770109543761
H          -1.65508161197578   -0.47260106204442    0.96134786720739
H          -1.55277308798270    0.76334199608849   -0.41048939765029
