    19
        -40.92343663
S          -0.26791952807160    1.62966205433209    0.34422487362148
O          -0.60500509004337    1.71756478132519   -1.07735251311567
O          -1.34517338050744    1.05270386952904    1.11987965629522
O           0.99908357795878    0.94750177720455    0.55552029321787
O          -0.06040760234858    3.11015946359913    0.84121614540918
H          -0.90553851370341    3.51072642056298    0.66288261145119
O           1.83773893784476   -0.87224628713245   -1.20721418853835
H           1.76779988008265   -0.06941260858039   -0.64981258090945
H           1.91403525179475   -1.60347062227712   -0.58426976111975
O           0.82014380236445   -1.54252264532966    1.45854433633130
H           0.91906817570777   -0.58431791627794    1.26417361526386
H           0.82748183988624   -1.62459862608750    2.41312176104630
O          -1.54946690775935   -1.38817625381345    0.20253184519083
H          -0.76814174667815   -1.73141887936953    0.68451524797093
H          -1.69838081073269   -0.49805315032832    0.60215312229969
O          -0.58044755872011   -0.60591459171693   -1.95555200208544
H          -0.64503178012027    0.41358916519646   -1.73333179207285
H           0.41755120049522   -0.81220237386367   -1.82249039895144
H          -1.07738976750459   -1.04957357689379   -1.11874028123136
