    19
        -40.92136395
S           0.92219857367020   -0.32392469646464   -0.98449785332658
O           1.62034906716872    0.69424825755437   -1.72951822007730
O           1.29007760776320   -0.32353561937792    0.44247897948337
O          -0.51420619395441   -0.29965681231518   -1.14504030808229
O           1.41707353688423   -1.72786138717293   -1.53661428527657
H           2.30476360673085   -1.56010813842216   -1.84012243940391
O          -0.07545881257542    2.51006700146786   -0.85295861465462
H           0.65598955528470    1.98240174432158   -1.24690118349866
H          -0.85563589514522    2.28248598896147   -1.36640120433199
O          -0.35830166931293   -2.23387948728838    1.35848046874178
H          -0.39269900653644   -2.91409852064668    0.68386131114395
H           0.36873996972626   -1.63551795433984    1.10203303555528
O          -2.02352681672810   -0.18621159723912    0.99409198959310
H          -1.72538329809752   -0.25613925463852    0.05838558693508
H          -1.66863107137721   -1.01167196703910    1.39228821656040
O          -0.19838208665356    1.42525946801303    1.45329882698597
H           0.53380372183222    0.74729239477898    1.21075840866193
H          -0.20664465706509    2.03053630712768    0.62728567167190
H          -1.09412612160672    0.80031429271628    1.37909161332862
