    19
        -40.92011127
S          -0.17742668818549   -0.14662530332363   -1.06087117427520
O           0.12543311815929    1.23213426751520   -0.66680589598295
O           0.74404978561180   -1.07212048525799   -0.36959418286255
O          -1.55227673865734   -0.51092151975806   -0.83275793535484
O           0.10992801682798   -0.28021980786898   -2.58102080201723
H           0.96096126572283    0.19157784467173   -2.70979947889227
O           2.08246161972790    1.45325646240286   -2.39638534752036
H           1.97533314766568    2.22353307450741   -2.95920803249269
H           1.49618231260331    1.58547793796206   -1.62374434184753
O           0.14068296078349    1.39174405270649    1.94341973060706
H           0.93683988101816    1.87803599192415    2.16773869591856
H           0.05522384538125    1.43592162374844    0.95858598347322
O          -2.25063266366873   -1.67566728851765    1.39088085138553
H          -2.14304633109363   -1.18995589323232    0.53477199568684
H          -2.48264707972168   -2.57699410372090    1.15757893361167
O           0.15640814817415   -1.15661361171840    2.00224986608614
H           0.15098942423378   -0.15024549458154    2.16936394393551
H          -0.83033050853972   -1.43123096192910    1.91957659043873
H           0.50186650395227   -1.20108677552658    0.95602060010669
