    19
        -40.91793142
S           0.08328383832685   -0.88376005396147   -1.51664793396048
O           1.41756338068915   -1.33652176331494   -1.83618807096654
O          -0.42489835182015   -1.40445040752508   -0.26427121512739
O          -0.02391639535463    0.58351659744890   -1.56339298758505
O          -0.88348507052025   -1.41805281785324   -2.64814471636212
H          -0.44139504819676   -1.19736728535161   -3.46348234069129
O          -2.25769992154765   -0.02432208457239    0.98388510767021
H          -2.69094405913228   -0.66514322401978    1.55083315320467
H          -1.62530563303512   -0.54089509758229    0.42963289270658
O          -0.65583626313237    1.78032082969787    1.99041721877935
H          -1.08289013401451    2.62983515568979    1.86294737247525
H          -1.30188284337080    1.09491469003916    1.66542188157803
O           2.13764917781283   -0.90860347709615    0.64660115403002
H           1.37893997646259   -1.39221682658524    0.99443592902853
H           2.14304056413659   -1.14674013556270   -0.30808978073616
O           1.25384737182863    1.45321633737646    0.35029116972576
H           1.73326307690860    0.57181150586609    0.58747219126650
H           0.71041149248333    1.18153445927885   -0.53279504178211
H           0.53025483147203    1.62292358802222    1.07107401674426
