    19
        -40.91821030
S           0.19328080603987   -1.57105144250462    1.19935840966191
O           1.18874748803084   -1.64580166533807    0.11632648169739
O           0.30951129394330   -0.30674898514721    1.91059633940200
O          -1.14430127880168   -1.85169715240376    0.74557207094846
O           0.60239615270927   -2.70566879961659    2.21615284764557
H           1.50279460046627   -2.47769684256692    2.42666793343296
O           0.55114298465315   -0.37378984845015   -1.89270500758461
H           0.89123301991665   -0.98206104883832   -1.07697149533215
H           0.93605267265775    0.54835275682603   -1.72528526306497
O          -0.66939751299011    1.72436413161231    0.69244406263929
H          -0.94311087933862    2.34803016925585    1.36712119280572
H          -0.28307704653210    0.94701230398409    1.19180436751756
O           1.15746882348692    2.04580563722020   -1.23749509132861
H           0.56013072281448    2.05049065193965   -0.45670540719050
H           0.85414860255020    2.73709375801890   -1.82904824949532
O          -1.78985744264665   -0.07974622347755   -1.04989251616689
H          -0.48108023823174   -0.27536025403042   -1.69036292870036
H          -1.76162878772720   -0.83848181416194   -0.41814512540695
H          -1.67445399100780    0.70695465769639   -0.48943263148422
