    19
        -40.92135396
S          -1.12385408604930    1.06781639571799    0.18305484111454
O          -0.77972497067724    1.43435863489728   -1.17312179793849
O          -1.96444103858474   -0.12925347647708    0.23148756440548
O           0.03378085903274    0.94194555302835    1.05439907841090
O          -1.99125237859934    2.24284849646368    0.78065482754958
H          -2.68048501596185    2.34891140841210    0.13224335382169
O           0.73001050376675   -0.55948769397506   -1.95281516916656
H           1.52781996357146   -0.23338058756773   -1.47172719558983
H           0.11056399084172    0.20633077626874   -1.89912791416484
O           2.32638300217975    0.80260565633349   -0.34649878527154
H           1.57084917950636    0.93556074225905    0.25874638158435
H           2.54793712719390    1.66883647132451   -0.69266866327709
O           0.63270120463864   -1.51397855767081    1.83522783029389
H           0.49620905267815   -0.55266595735185    1.67441937567959
H           0.14908043809415   -1.72870980027345    2.63501076235132
O          -0.49488866463783   -2.03987492195583   -0.39335284451233
H           0.04971410979826   -2.03666314900942    0.46642745526683
H          -1.23843559138232   -1.34666408334199   -0.17940938978540
H           0.09803230459335   -1.50853590707979   -1.14294969078268
