    19
        -40.92071428
S           1.23442083392116   -0.27352308417759   -0.77290396657033
O          -0.07383272150688   -0.50320033272450   -1.34121717305777
O           1.92662979901752    0.86664129352020   -1.32829576962625
O           1.15273790215316   -0.19779586209669    0.69923491403408
O           2.12155680975711   -1.54297305300895   -1.08649875039041
H           3.01114802651163   -1.20140882555146   -1.10093791230236
O          -2.14717012412168   -0.56100620688839    0.27184846347419
H          -1.84111478910263   -1.24452463043710    0.90488818292273
H          -1.55639013192306   -0.68602754497217   -0.50639198264584
O          -0.50301121545551   -2.00236837368335    1.79375540652290
H          -0.30327684313749   -2.09143567503315    2.72673726270554
H           0.21504321220100   -1.46505488775321    1.40391969856579
O          -0.23248189340773    2.34676712614972   -1.28301224988502
H          -0.76850748834015    1.88624453542007   -1.93535427931836
H           0.66868896422581    1.95536339001016   -1.37035329289210
O          -0.78862966459724    1.37590937661066    0.99824251692846
H          -0.65819968038844    1.92179992014545    0.13478749961047
H          -1.52775223159518    0.60105055781088    0.74992913414059
H           0.07014123578545    0.81554228679896    1.04162229781558
