    19
        -40.91892670
S           0.63687541066323   -0.06749543284102    1.28356455452866
O          -0.26397690411441    0.55980578952912    2.22640872683948
O           0.12263889298582   -1.26313301631282    0.66301282119273
O           1.10579991781094    0.89439279096203    0.26848951967768
O           1.93013339045123   -0.49126282120786    2.08900831711184
H           2.08796325985478    0.23363782419808    2.68677272595455
O          -2.34026553222478    1.10272580138962    0.76237181377363
H          -2.74712578686032    1.89764783244626    1.11395898877677
H          -1.63318388869795    0.84265231523131    1.40691271069651
O          -0.71612110336776   -1.25607089287900   -1.95661399704930
H           0.25212915747893   -1.35806244979325   -2.09987707575377
H          -0.84795907582524   -1.62286576014069   -1.06800770650606
O           1.89173561426087   -1.26228826728148   -1.37704031667978
H           1.47326847504772   -1.48098139796779   -0.52751298240041
H           2.22320909159643   -0.36685235523653   -1.26253060579212
O          -0.82060125070519    1.14760482932061   -1.27381065609636
H           0.05481263868395    1.14001006006696   -0.69066038890057
H          -0.85143239564456    0.16178686896854   -1.67939602364909
H          -1.55789990139327    1.18874827153052   -0.56505043572989
