    19
        -40.92136400
S           1.27955563345919    0.05546679915566    0.53189250789130
O           2.42741425613664    0.34732690227800   -0.29036105910249
O           0.35687170489911    1.20012702225025    0.63073905663216
O           0.56946628249343   -1.14668600462102    0.15709762333197
O           1.81077312015180   -0.17379600632776    2.01040126962899
H           2.59636044578578    0.36330139630491    2.06190069260239
O          -2.00502614075156   -1.00002317389177   -0.30515636715775
H          -2.23128404111028   -0.65026712361539    0.58503269322063
H          -1.09331366875601   -1.34724841303913   -0.17174756901505
O           0.99017000035413   -0.07444909309809   -2.45835073894331
H           0.90972956996892   -1.03196304033384   -2.43044393478228
H           1.65876802649029    0.14869870267486   -1.77154623094548
O          -1.60668735121608    0.09571460550621    2.09045461270130
H          -0.89311600645435    0.62367685215044    1.68505721696759
H          -1.18123660564169   -0.47722295839964    2.73073151322944
O          -1.07520076771656    1.00702642454184   -1.42069102502715
H          -0.33571032886541    0.62249581636836   -2.01550606964412
H          -1.62917828655930    0.14557486030301   -1.03263641745673
H          -0.54835583267293    1.29224643179267   -0.58686777414599
