    19
        -40.91892634
S           0.61238129432954    1.12091922051349   -0.65291071608750
O           1.27448382548179    0.47553327414371    0.45348843526494
O           1.02989154349557    0.66045660201665   -1.95959428109159
O          -0.85365948504631    1.05274988751174   -0.50418629000639
O           0.97068344751124    2.65861542649155   -0.56489740025073
H           0.73858200862579    3.00687006427082   -1.42072956535721
O          -0.55275691967709    1.21679342194858    2.29837199517707
H           0.26020276975744    1.21050412174005    1.76592909206786
H          -1.24058517945641    1.50310277436350    1.69036414427498
O           0.44831167071712   -1.87074001743202   -1.89279395456667
H           0.78923306699736   -0.94235514891427   -1.96269020989724
H           0.22175492713012   -2.14313136001621   -2.78472808001284
O          -0.03347322075443   -1.38698710088796    1.99730718142522
H           0.81211006368887   -1.10543404622331    1.61331215607305
H          -0.37171428078875   -0.56565039886168    2.42076432750373
O          -1.32330214473074   -1.35640285263852   -0.14523364496772
H          -1.25859630767661   -0.31833771287354   -0.30307917935509
H          -0.67782681978848   -1.72767586681762   -0.84755896195440
H          -0.84572028972374   -1.48883028844120    0.79886494190179
