    19
        -40.92120606
S          -0.31771835267156    0.21483666985742   -1.32444870879655
O          -1.67657883495546    0.14557087146424   -1.78670856553808
O          -0.05001842411474    1.38221209123198   -0.48384932597031
O           0.19128321513418   -1.00048459615803   -0.70981934168028
O           0.59662044793983    0.41680551113542   -2.61868639142715
H           0.03775292301162    0.88903633413816   -3.22843953690613
O           1.10963636690304    0.81375068513293    1.62579580452651
H           0.58704140856225    1.19816150747292    0.79624498722181
H           1.89970750639369    0.37435427059190    1.16615756691359
O          -2.57034620492527    0.00915296021725    0.72436769810691
H          -3.49185756653574   -0.25715349552448    0.69980649660661
H          -2.29075493685650    0.11415906009801   -0.20557082976944
O           2.64665383609825   -0.38535636322625   -0.03724499707080
H           1.81583478641427   -0.77361601568251   -0.39673974618467
H           3.02828421786188    0.13307056997212   -0.74810852507127
O          -0.45302933361719   -1.11428968998160    1.88458044937193
H          -1.33299540483804   -0.71211743040073    1.72241762994655
H          -0.20149175742053   -1.45539299774038    1.00547032184505
H           0.47197610763119    0.00730005745630    1.91477500389618
