    19
        -40.91893362
S          -0.15659898037470   -1.61180833106317   -0.61773214754711
O           0.30889883409542   -2.47106988915026    0.44130530180450
O          -1.36979246273478   -0.87209369905309   -0.23714971293397
O           0.84428368193500   -0.72133924085095   -1.17159188826036
O          -0.59856976829446   -2.56343818139566   -1.80842379318569
H          -0.94219203628923   -3.32706156586147   -1.35471093837386
O           1.57948167392759   -0.41041445410011    1.48929321924197
H           2.02749969847354   -0.17355697242961    0.67164906267533
H           1.13834138243092   -1.25971551328976    1.28264788925138
O          -0.08583158505760    1.47640776502761    2.21992584784386
H          -0.60619104173085    1.10275052366502    2.93387228234574
H           0.61190491890057    0.80020263317545    2.00319420225539
O           0.49294197689162    1.78107253281666   -1.74399350896216
H           0.73907451185602    0.83235671991727   -1.59028159553219
H           0.24654809309144    1.84939985227115   -2.66821278885646
O          -1.32324827730402    1.57462706263786    0.01713285501722
H          -1.42680739598770    0.51741874250145   -0.11395435819455
H          -0.85328546642570    1.64828910301383    0.93772736199110
H          -0.62645773733329    1.82797291223062   -0.69069731061581
