    19
        -40.91103823
S          -0.03402057516499    0.01314067828949   -1.52853032221289
O          -0.02191625470098    1.42199542043621   -1.86714195435206
O           1.17230109243280   -0.33524284946476   -0.74762563719461
O          -1.23560859872692   -0.41445380878228   -0.85848525803906
O           0.08053503947494   -0.80291508019294   -2.86445935722110
H           0.89077805775687   -0.49522635824248   -3.26002724144403
O           0.75644698558925   -2.85162387122468    0.43623711457906
H           0.98494415156162   -2.07241298662506   -0.08590515681111
H           0.01245279035311   -2.60211516540681    0.98974629065964
O          -0.24406141228184    2.59469868598705    0.41906160474234
H          -0.25426961711426    2.21812654180585   -0.50357543201533
H           0.22520743615339    3.43020809875171    0.36125722988524
O          -1.24938368992979   -0.89499546432116    1.67484037606603
H          -2.07189562139575   -0.57863894009857    2.05371893472445
H          -1.34804455633421   -0.82286569488890    0.68782661824478
O           0.80783291299124    0.57927116928904    1.51516569309629
H           0.01329087993671   -0.02012788976723    1.77754434530171
H           1.11292860012064    0.15261656776280    0.58940838548145
H           0.40248235927325    1.48056095669212    1.21094377651237
