    19
        -40.91892646
S           0.75856604007568    0.59111622832302   -1.06459044103998
O           1.34306750082195   -0.48157224256279   -0.23772142692358
O          -0.66715657777407    0.42228600108601   -1.19772516477296
O           1.17198132842727    1.89752294810645   -0.59933348707868
O           1.37808841718255    0.39327535959816   -2.50603195539662
H           2.25841028695577    0.75134451994855   -2.43854807978193
O           0.00662335874227    2.08336338673019    1.71486582244935
H           0.40166494782801    2.13264754483750    0.80676348430568
H           0.56370566977075    2.62174831801255    2.28132415944799
O          -0.59207605782913   -2.27619620609170   -1.24029918808099
H           0.31319743193030   -2.38366017910607   -0.93396693208230
H          -0.63931550455028   -1.35635529815459   -1.55075058472621
O          -2.09115742653162   -1.07661991069367    0.61747616661896
H          -1.75156668384303   -1.80101532042364    0.04440281512649
H          -2.09614448211309   -0.30896844575869    0.02397912062496
O          -0.00313115255897   -0.45419530844994    1.84558797688837
H           0.64705398914704   -0.55601047223263    1.02483286209679
H          -0.05744186192170    0.56156498780069    1.96047274245260
H          -0.94436923367601   -0.76027590093641    1.44926208986469
