    19
        -40.91892666
S           0.62255844916986   -1.13150436419445    0.62512172005136
O           2.00025233011807   -0.76107655440557    0.86781132518384
O          -0.34833336021359   -0.34704508120736    1.34690092433999
O           0.31875451186235   -1.15028531107135   -0.81810409178327
O           0.45225303244392   -2.62730108837097    1.10902609473492
H           1.25243365399415   -3.06134975259741    0.82804255144499
O          -2.43751236682308   -1.04059133620932   -0.21601482655169
H          -1.93399469427014   -1.42620956482368   -0.93895087588345
H          -1.81998339316075   -1.02734088956382    0.53440972156548
O          -1.86968606449321    1.55438178910635    0.06461296647673
H          -1.42029982722095    1.30154451797557    0.88650805504355
H          -2.39163346032783    0.75133230261798   -0.16186559153735
O           2.07462885143807    1.72058154340464    0.10435117053321
H           2.95544008371218    1.89723102591973   -0.23325421905257
H           2.10618090606913    0.81459580630360    0.50619387070745
O           0.10897161871419    1.24380889832481   -1.43327455977006
H           0.18756636872814    0.20280303336501   -1.30530371599498
H          -0.76314003771041    1.49248678441743   -0.87245251851283
H           0.90554339800286    1.59393823102775   -0.89375800097261
