    19
        -40.91892638
S           1.30854662570415   -0.28940841626458   -0.51279456892260
O           2.00770528461080    0.97448197568714   -0.60219466967496
O           0.94680205482151   -0.68447522808585    0.82591158623530
O           0.13566745522125   -0.31801944349545   -1.40665067451411
O           2.28681051634209   -1.40046026788225   -1.06890576484854
H           2.71333324707661   -0.99076804918619   -1.81590678520044
O          -0.89506586676534   -2.50226774085180    0.05866076008884
H          -0.96806898581746   -2.23450987946301   -0.86205750846733
H          -0.05286261706076   -2.12188070303875    0.36006033032030
O          -1.66122518493533   -0.53649854976457    1.69630637842636
H          -0.72573510430125   -0.46091121745463    1.94207621987302
H          -1.69871558397052   -1.39503505092140    1.21644332993194
O           0.30363353422355    2.64391743053701    0.42666234425944
H           0.42852193981025    3.49296869757587   -0.00297093582915
H           1.04288142550959    2.06161429422214    0.11447523691290
O          -1.56528107388070    1.05328742714945   -0.23232347040501
H          -1.73196878026152    0.43490950242360    0.61993803794503
H          -0.94381511424835    1.80541454205181    0.07709143470349
H          -0.93116375261273    0.46764066732362   -0.83382126070818
