    19
        -40.91892620
S           0.91238271468273    1.09744909078184    0.15209065832796
O          -0.26029585347698    0.97273330669959    1.03814606857345
O           2.10217442780689    0.56039504720704    0.77639020603286
O           0.62812060708820    0.56781792134704   -1.15850025610072
O           1.14041451367946    2.65229406277308   -0.02372378952580
H           1.55946559947491    2.92515792160373    0.78722062038400
O          -1.41165193574348   -1.23657668782720   -1.54692501054411
H          -0.52748442646289   -0.94607138830076   -1.82147168443999
H          -1.93402655030641   -0.40263731958275   -1.55376129063804
O           1.58904297079116   -1.98266606083205    0.90990516453878
H           2.02763927569237   -2.32940801352121    1.68999437034145
H           1.90139787551529   -1.04728154143509    0.80681606314269
O          -1.95461084258873    1.35451560927095   -1.18875350546963
H          -0.99720105992547    1.34744529008890   -1.35602955811178
H          -2.03748515844437    1.56352841290220   -0.25375972345327
O          -0.88926962923497   -1.42236648709354    0.89191117114270
H           0.05558780379292   -1.81443405533724    0.93046640260322
H          -0.71658873558028   -0.39693685547949    1.05094345243130
H          -1.18761159677035   -1.46295824327080   -0.13095934922375
