    19
        -40.91889791
S          -0.70227886733279   -1.08981336914824   -0.75160840657049
O          -0.10229293559060   -1.17453559160060   -2.06693868301115
O           0.32278968150561   -1.23311955618258    0.30449286712384
O          -1.50675259766007    0.08179887925074   -0.52860295462049
O          -1.63738411546006   -2.35531074020097   -0.60602316181052
H          -1.18995625694940   -3.01665985304253   -1.12527824584103
O          -0.67005745756438    1.84983149789928    1.19892635622553
H          -0.73763063009381    1.26665600489487    1.98611904175463
H          -1.19948912064137    1.37075778472393    0.51532581753902
O          -0.53461752638314   -0.35023489201724    2.69143113729771
H          -0.30535287437716   -0.81400578838021    1.86162192220383
H           0.05163520438572   -0.69261071864230    3.36783843037401
O           1.14484188232846    1.09913879948218   -2.26037926821912
H           1.87828656704490    0.97498033244321   -2.86668651965195
H           0.60379678567301    0.27067139950966   -2.30297416340273
O           1.45279990600986    1.02017391752758    0.26721736103809
H           0.56224577487846    1.54176168678655    0.71654802402274
H           1.14665043559440    0.04463187781182    0.33389891163257
H           1.42276613463712    1.20588833888983   -0.73492845609104
