    19
        -40.91317659
S           1.09980876252275    1.07494836471523   -1.31572095150510
O           0.42083361995282    2.33253054311386   -1.16516161184801
O           2.09951008775871    0.84937614949972   -0.25405679549160
O           0.19758692158158   -0.06543920941073   -1.41259167941890
O           1.91244002663701    1.11436254770259   -2.67004225186235
H           2.32199912578521    1.97531261060064   -2.68312019786908
O           0.18652399678108   -2.16761982503230    0.25320621669635
H          -0.76665212544696   -2.22893494193410    0.46262164462055
H           0.23841184690363   -1.64728636823050   -0.57388447398086
O          -2.35294157174573   -1.59609153547926    1.01976187502472
H          -2.80052329497618   -1.70736871746955    1.85969892556903
H          -2.27680651116227   -0.64529186322896    0.85886079672739
O          -1.25093206630817    0.94693468616864    0.52347149281241
H          -0.90037426287306    0.55383515291842   -0.30940567917953
H          -1.16957477702984    1.89402135838567    0.36435731714577
O           0.85785377022185   -0.17304781780924    1.59176224456606
H           0.00386212358469    0.33054990656754    1.44973008351698
H           0.65707096939835   -1.12623844094538    1.14573534343186
H           1.52190334841445    0.28544739988716    0.85477773103956
