    19
        -40.92267747
S           0.90257675168775    0.51782216991062    0.22210787179761
O           0.63467789763788   -0.28772211541152   -0.99533122985827
O           0.17578674473244    1.77662810357445    0.14812779170405
O           0.59527313154536   -0.24248946485845    1.41215652306146
O           2.42818158262022    0.81413392359629    0.21746438054506
H           2.54491899104758    1.35723397768012   -0.59355538467416
O          -0.58503127662192   -2.56835993998078    1.34763504337538
H          -0.08540036923137   -1.73683627691842    1.54029329521058
H           0.07253675772427   -3.25242718681900    1.20787099440215
O           1.79978339540319    2.11067548367623   -1.97469763502363
H           1.47229153789905    1.33354274552753   -2.43899231319520
H           1.07569998272359    2.38868600217848   -1.39111816011157
O          -2.15554282412023    0.73021969031410    0.73273286282179
H          -1.36843258994407    1.28139624118218    0.50773319589703
H          -2.05783926976790    0.51651293430613    1.66484094662096
O          -1.56213764779149   -1.32357131326326   -0.63969769482120
H          -0.59902633554364   -0.90844211506599   -0.92571594015331
H          -1.30260012224694   -1.98175599179245    0.10199529275120
H          -1.98571632774856   -0.52524686785495   -0.14384985034092
