    19
        -40.91892659
S           0.60675835093029    0.32041007842294   -1.26041813970845
O           2.03398205352084    0.16242401118031   -1.08067597519717
O          -0.15722975308972   -0.89354592171623   -1.11257753612311
O           0.07261626641108    1.38903819539452   -0.39534931889150
O           0.37890359902634    0.82622626571420   -2.74123963104870
H           1.08179491489900    1.45199996781832   -2.89014267556311
O          -1.67742186308439   -1.34654920505049    1.13336938273105
H          -1.12572088501061   -1.73691639275519    0.43692326242972
H          -2.30630749120763   -0.78124505149562    0.63035059748445
O          -2.52866698446031    0.34687106457081   -0.75015570490260
H          -2.19110780703496    1.23416643375172   -0.59689607493871
H          -1.79743202840872   -0.12369756291637   -1.18441240428470
O           2.21764608104048   -0.73711295312200    1.34943612876537
H           2.22833143998399   -0.49265279891385    0.38859014999233
H           3.04391518454686   -0.41785341273999    1.71873458189357
O          -0.01113850380595    0.36915699901096    1.86441278559899
H          -0.01027997884075    0.91783688824389    0.96693440174266
H          -0.75145104276516   -0.37864720370254    1.69155848299377
H           0.89280843740906   -0.10990941176561    1.83155769701269
