    19
        -40.92139822
S           0.55517795334307   -0.42615905410822    0.98894680805458
O          -0.38171857960824    0.65721962878051    1.28202942365998
O          -0.08530830126392   -1.43692887737480    0.15289741904261
O           1.78212611258214    0.08186852984992    0.38065674831256
O           0.96943957319799   -1.08766344965540    2.33433676046213
H           0.11457137326338   -1.40569836889496    2.69049724740260
O          -1.63016674785362   -1.50960957807554    2.40274080493456
H          -1.69887168566866   -0.55714378662772    2.25545174952374
H          -1.48020715524232   -1.88616506718009    1.52502252423397
O           0.00746265327218   -1.01950947039664   -2.40827105130979
H          -0.90953266327681   -0.90904315978139   -2.66934483123012
H          -0.00672064444610   -1.31976381270286   -1.46110567882551
O          -0.58396875263783    2.29649507416596   -0.70391938428014
H          -0.43111503306401    3.17808760903373   -0.35711449639330
H          -0.59708938089581    1.69030752695623    0.08855158386542
O           1.31314663775417    1.06295941339032   -1.83381199718882
H           0.55740961366166    1.68472828780991   -1.50599500817546
H           1.67010430212076    0.66322929408678   -0.91503901335396
H           0.83526073476649    0.24278924071224   -2.24652959874002
