    19
        -40.92343666
S           1.15828049654226   -0.98349048767537    0.73274283463675
O           1.34521298171065    0.21476399435016    1.52285766259728
O          -0.00168363346062   -1.75649835324981    1.17914625833715
O           1.10419620591389   -0.70823093935888   -0.69431680413882
O           2.41611184190893   -1.90513743583135    0.95735974992516
H           2.39335103964866   -2.06536028544784    1.89561131381249
O           0.43837924886978    1.77495537623436   -1.35580115299253
H           1.17784718047573    2.37644609781375   -1.45309852929836
H           0.82430806554150    0.89722773805204   -1.14040300063166
O          -1.25681889725405   -0.54724478848184   -1.92817887422835
H          -1.14315778540510    0.34667804245574   -2.26946807695838
H          -0.35999975834682   -0.83061307248010   -1.65343909684140
O          -0.79348957872049    1.63725657446921    1.02732103882428
H          -0.49422268212797    1.94599170589868    0.14653935397239
H           0.01271466241180    1.22060990956814    1.41538816197803
O          -2.01484729563096   -0.46982012004921    0.50034520255073
H          -1.27168903909975   -1.11120168610860    0.86040956118168
H          -1.63445918924223    0.49061600437274    0.77641590654342
H          -1.90003387376397   -0.52694826444010   -0.51943149928686
