    19
        -40.92136403
S          -1.04346850965361   -0.22462937710952   -0.88479832408142
O           0.21744763656887    0.40572208262251   -1.20499226136950
O          -1.24125359292885   -1.50834175947728   -1.51070608406336
O          -1.24820563300272   -0.27604993297497    0.57353058540105
O          -2.18294765251233    0.73936904509059   -1.42664044882859
H          -2.90948145556855    0.15476729873750   -1.62320712845824
O           1.77153890430179    1.18548905760565    0.75433249899513
H           1.39949887492394    1.02913011049672   -0.14386746813179
H           1.10444117114900    1.78302926614728    1.15913643453039
O          -0.62432463062909    2.25238601661191    1.22331790935506
H          -0.96389593442386    2.80686197219813    0.51867656542098
H          -1.00281874374896    1.36526641021613    1.07493692111807
O           1.17459465558069   -2.25048254417663   -0.76438675671340
H           0.25141515234430   -2.15735265784847   -1.09244153679669
H           1.71103815325689   -1.73107730464800   -1.36977691363244
O           0.96454414614558   -1.04339026303761    1.47412740293843
H           1.45146297240235   -0.08230382967334    1.27688103108633
H          -0.01744119644450   -0.80563080588125    1.29141024893955
H           1.18785569221041   -1.64276279519494    0.67446732449081
