    19
        -40.91836648
S          -0.94609393485381   -1.45475890169683    0.93830717645397
O          -0.98948549938222   -1.74844372813543   -0.50299166611808
O           0.37684738018642   -1.70484936945554    1.48012592579377
O          -1.45278629107828   -0.13642583612115    1.24270049314430
O          -1.92460114674524   -2.49042439738945    1.61526536099690
H          -1.47487768888663   -3.31839776122304    1.47614846469066
O           0.71626413526937   -0.50311929739306   -1.76668558251060
H           0.29046818980476    0.39185859790401   -1.97915576367722
H          -0.04750066993338   -1.09658835978091   -1.30208710265038
O          -0.00306123159675    1.92765739978633    0.74752336120899
H          -0.27309199606551    2.62254334311623    1.35023114285497
H          -0.59210767729186    1.15017495938250    0.95851821369824
O          -0.20296288397863    1.89970104806885   -1.92348343212994
H          -0.22790851468479    2.03278182409997   -0.94980954224597
H           0.39356578256214    2.55873203073261   -2.28343467710684
O           1.95096430375886    0.02042196432754    0.34773714177039
H           1.37018245805700   -0.30665548213400   -0.96007758927291
H           1.51684587283447    0.84487364374469    0.62332738292910
H           1.51933941204248   -0.68908165786570    0.88784067219885
