    19
        -40.91898071
S           1.12514086798978    0.86915426788292    0.80367810967302
O           2.47314146048229    0.54186353707899    0.42010336872035
O           0.35498865265292    1.46310231553419   -0.30310740883620
O           0.38573320009709   -0.23818081550959    1.38844099865816
O           1.20463285726526    1.99094198672262    1.91794088910242
H           1.99341674411738    2.48818392736338    1.71835657015884
O           1.50583344135871   -1.78894896989110   -0.44775100894133
H           1.02567824719767   -1.61317407401348    0.38299767249300
H           2.27816757196269   -1.20399098214220   -0.36541663800328
O          -2.05218548127627    0.67527293273813    0.92676715696357
H          -1.21951741009040    0.30450779820800    1.28600069318907
H          -1.79052218564136    1.50975373731775    0.52582231618866
O          -2.30450041928481   -1.04391128233774   -1.02006832571280
H          -2.36193498536564   -0.37807128676806   -0.27658938156738
H          -2.33239390965454   -1.91105145796693   -0.61045052166749
O          -0.03051316972941   -0.39105751315687   -1.90206065920255
H           0.12814997600121    0.48601971655881   -1.33391809317111
H           0.61481237806308   -1.06810335582469   -1.45937808079064
H          -0.99812782600742   -0.69231048191164   -1.65136766727076
