    19
        -40.92136354
S           0.47664086759268   -0.66943294050744   -1.11704805372589
O           1.76041323709022   -0.35851107101956   -1.69504899464489
O           0.59727170737098   -1.24618777413841    0.23383412721729
O          -0.46239288832525    0.42934696145481   -1.12517122220087
O          -0.16660842377445   -1.82182961042096   -1.99983847211210
H           0.58289607517121   -2.30569026400604   -2.33515105726981
O          -1.99930557810574   -1.48102351816721    0.87416996874234
H          -2.45496953064373   -1.74283979774355    0.07228443258528
H          -1.04625187278185   -1.56817380969666    0.68361496204097
O          -1.59595635251245    1.14081397820920    1.12796764905818
H          -1.36005884283752    1.08160923841298    0.17403469662871
H          -1.99539358224221    0.26012442747086    1.30306291435056
O           1.86220966744129    1.86621429438141   -0.28695596147307
H           2.00613783525634    1.07547008828184   -0.85498716434010
H           1.21689691812962    2.40111780125209   -0.75761633121315
O           0.77493741799034    0.75480109200385    1.73637263234580
H           1.28699550819237    1.33186670558096    1.06294881723045
H          -0.28049774284184    1.01912182186676    1.62021785648449
H           0.79703557983228   -0.16679761321538    1.28330920028849
