    19
        -40.92136332
S          -1.17546184414722    0.73501140415279    0.04430964684033
O          -0.35538034844994    0.52504324397484    1.25069420013226
O          -1.21494542575136    2.11984874120693   -0.35511649820209
O          -0.78649456980350   -0.17727478385133   -1.00730415899396
O          -2.64934786026089    0.33002642112166    0.47358723583357
H          -3.02647326739087    1.13967945703812    0.80603607265191
O          -0.49139851988326   -2.14880054034836    1.44831268796216
H          -1.38168601095806   -2.39575383541538    1.19245429180794
H          -0.49801541464753   -1.17779221911175    1.54490694214528
O           1.15118943472287    1.87115879336593   -1.48636530474629
H           0.29163064626275    2.15070576367726   -1.09674625934968
H           0.92027672219473    1.35762031727303   -2.26550642934383
O           1.20630027827868   -1.82434765250126   -0.57954080819429
H           0.79493760541096   -2.25255481201865    0.20356540459015
H           0.44229393390786   -1.36405475833648   -0.99618888123841
O           1.98477332109289    0.32895409886433    0.36753585936292
H           1.12422991993940    0.46227973724047    0.91190076990409
H           1.81432282815621   -0.66754189844568   -0.05170721915597
H           1.84924855133798    0.98779253210984   -0.40482756201243
