    19
        -40.92343630
S           1.24489534912290   -1.09978662427583    0.29322801647380
O           1.43021168864943   -1.04379541968757   -1.15762219346199
O           1.80466106513992    0.05979786148001    0.95414554961252
O          -0.14671455259498   -1.32703386035048    0.64964909761508
O           2.04039361830592   -2.36548805790394    0.79022077833562
H           2.92821746174611   -2.18185780830104    0.49941302846228
O           0.37636059010986    2.05578397770499    0.05054932239466
H           1.07835455128284    1.46863172530155    0.42031092485272
H          -0.40114838830146    1.87438329871753    0.61915952867232
O          -2.08785124554235   -0.50801280071140   -0.98777341994424
H          -2.54069999674478    0.05655193386008   -0.35169232480662
H          -1.48649163574055   -1.06510875907966   -0.45091997320673
O          -1.45366885308668    0.79672942469561    1.56078622521416
H          -0.96021358301279   -0.03049788393564    1.36599568403130
H          -1.41645586128631    0.91349649889019    2.51115812280248
O          -0.10179488490444    0.72159777881659   -1.99861599125754
H           0.09212779614786    1.42395457669506   -1.21548870494426
H           0.59708190103208   -0.02936790465225   -1.79747052871448
H          -0.99726501032280    0.28002204274858   -1.75503312213128
