    19
        -40.92079119
S           0.93385283971299    1.15331289412894    0.07342512069985
O           0.64189739953317    0.70349958220596   -1.28901169232202
O           0.19466200280724    2.33512066184709    0.43544866068246
O           0.81228738208716    0.05695586992677    1.02436564374963
O           2.46887983811120    1.53849193344916    0.08452502555081
H           2.49989258567463    2.33422662165195   -0.43734362764749
O          -2.30498744304167    1.57041046500535    0.04509698049280
H          -2.87469730905276    2.15967500825945    0.54315412277345
H          -1.39703589856051    1.93492350885939    0.12624928239126
O           1.58352626864925   -2.29018175855540    0.14376469388779
H           1.48693489201133   -1.39660427580113    0.55015395913154
H           1.47666585648950   -2.92656996991625    0.85364090696550
O          -0.35401361797654   -1.56159947264404   -1.36153947056988
H           0.41271067803769   -2.05346533867234   -0.91371075222937
H           0.04986753160994   -0.59609961407092   -1.48524575782090
O          -1.64757282102799   -0.90552276838508    0.66526795000451
H          -2.11470669916602   -0.07103440438058    0.42504532097356
H          -1.04805501614510   -1.38881006249192   -0.57021593535540
H          -0.82010846972976   -0.59672888036755    1.08692956859058
