    19
        -40.92161554
S          -1.05834146204450   -0.11868834578092    0.04846188026431
O          -1.13155476323104   -0.21989233766750   -1.39094121738415
O          -0.03199915133040   -1.12931750569777    0.55936796071128
O          -0.77989512599333    1.19345428175891    0.54882089333304
O          -2.37528011079588   -0.63248712192340    0.66643255566119
H          -2.52316416240551   -1.50864708012551    0.22875543444096
O           1.41041962622797    1.76739161939408    2.01555161492943
H           1.48995093541055    2.70606139863832    2.19259220389016
H           0.53141844210330    1.62867813303793    1.61739301385260
O           1.09792168246892    1.27853866507654   -1.68406313291153
H           0.77001620154417    2.09943212287988   -1.30839752031694
H           0.30843012226683    0.73238131725360   -1.83656434175173
O          -2.07416373697728   -2.69541572521594   -0.88622281428094
H          -1.75530559163509   -1.99922683429819   -1.48311362147222
H          -1.29450931208650   -3.15014364872120   -0.55505030634522
O           2.21063344119360   -0.11724993929520    0.29523638498899
H           2.19201319750600    0.53755335118310    1.02398897997174
H           0.98416802544168   -0.76652104264692    0.47613565120170
H           2.02924175234623    0.39409869215922   -0.52838362878323
