    19
        -40.91376539
S           0.18943347895499    1.21079477725806   -0.24154885081200
O           1.46340387069936    1.03191354841026    0.46911420576777
O           0.21748985286938    0.48236102265463   -1.50258948019047
O          -0.93714258048739    0.88232488344793    0.59818326647967
O           0.08405788362395    2.73794025383423   -0.58680287301638
H           0.66416411035057    2.88702233013764   -1.32854729170279
O          -0.72439254402451   -1.01691661676452    2.37703840375875
H          -1.39802558224956   -1.65978603158417    2.14286202649900
H          -0.90607460972932   -0.21488464409366    1.82884529497668
O          -2.40512447785030    1.33935904671719   -1.75113271270829
H          -1.57002033222760    0.94477592136932   -2.02336747383934
H          -2.35937634487832    1.36426085042998   -0.79077199301534
O           0.72529195598616   -2.00742643617359   -0.96092446490615
H           1.30452449488510   -2.35082186944255   -1.64454404843713
H           0.46075325486647   -1.09643194943429   -1.25319387359542
O           1.55666164135425   -1.27647740414866    1.32045977001273
H           1.30563382258824   -1.72837008043071    0.43387421331651
H           1.63872310872915   -0.24944797934305    1.02798228774746
H           0.69001899651571   -1.28018964285071    1.88506359365757
