    19
        -40.91966067
S          -1.16031590132775   -1.20764615561767   -0.35635541999304
O          -1.11359988782265   -0.49980046631825   -1.62633785389466
O           0.02618840623627   -2.06159043225967   -0.19221244007219
O          -1.35044747784089   -0.33458669502794    0.77534380809557
O          -2.39249458037323   -2.18554269151101   -0.41613469684986
H          -2.20631481343749   -2.71608498471071   -1.18466017910973
O          -0.43723952236857    2.26129360422631    0.58536912505529
H          -1.06260374914767    1.51859272693776    0.55950937988444
H           0.03965128534577    2.22988800592100   -0.25192515061974
O           0.71226611324868    0.59811387490727    2.28376496358172
H          -0.10039494358474    0.06748708962873    2.24173340083051
H           0.43725694173274    1.44864489659782    1.86219916726376
O           0.96071207040297    1.00073921499641   -1.55365756408463
H           1.36337120416026    1.04047775522376   -2.42317909254906
H           0.12160260879543    0.46420259678493   -1.65624658280212
O           1.85183070375958   -0.49327692201555    0.35161232574883
H           1.68156999354977    0.16493097590237   -0.39582914347115
H           1.47866307206179   -0.02887092994085    1.24693987730445
H           1.15029848660047   -1.26697146372853    0.15006606566865
