    19
        -40.91907733
S           0.79220997213495    1.46024126481310   -0.13900718474605
O           0.21350903092265    0.87026849210404   -1.32404278752723
O           0.01551040914299    2.53576994499833    0.43156494220481
O           1.10436473536778    0.42135469535860    0.86555985484368
O           2.19300324857350    2.06642935636301   -0.55853970705434
H           2.38242436243675    2.73395422156406    0.09568241075012
O          -2.17388272693814    1.15187539924119    0.02190850993198
H          -1.55542502332057    1.87644534644697    0.26598601220458
H          -1.90449066062909    0.91814141640618   -0.87591090496291
O          -0.77286235257493   -2.62985842331807   -0.11534686016021
H          -0.53332375763095   -3.47346848359981    0.27257593737074
H           0.03858568491369   -2.29017024149305   -0.59407597974724
O           1.36708779845990   -1.49032861148568   -1.07231281763372
H           1.76170418840147   -1.13584886022580   -0.26472023884197
H           0.96812914922544   -0.69798086889578   -1.48262741541509
O          -1.06947807898960   -0.64163588600835    1.41555445780937
H          -0.11319520679098   -0.20929990431141    1.30736755398135
H          -1.67730200631105    0.03848968613915    0.91502136673835
H          -1.03656876636663   -1.50437854408742    0.83536287023145
