    19
        -40.91317649
S           1.17483194079880    0.83559790573959   -1.42069050345268
O           1.66773752627978    1.94325947955440   -0.64929008949648
O           1.92286432454751   -0.40793240928477   -1.15241166523978
O          -0.25647080175452    0.60954468053933   -1.26600364008157
O           1.41071924324414    1.15763347757584   -2.94945021314745
H           2.29251887111147    1.51815098717481   -2.98957902404873
O          -2.43865329698492   -0.36171255726886    1.74593438122743
H          -1.74639145585605    0.31270059115776    1.78622171729488
H          -2.60550579443660   -0.65186693984755    2.64377135829506
O          -0.01453441940073    1.00422446014566    1.31434223431113
H          -0.26704036393505    1.00600288592250    0.36188107909264
H           0.68010285373193    1.67125427375500    1.35302758960027
O          -1.37275040715017   -1.66454285043604   -0.38267477255375
H          -1.16453929704565   -0.90564406652840   -0.96400787980122
H          -1.98982172903544   -1.31521171579692    0.29066680417475
O           0.81821549057893   -1.41839062130964    0.78431522195200
H          -0.10307729907338   -1.70292791303137    0.31825777793851
H           1.40550481994235   -1.06978116787047   -0.07003264072461
H           0.58628979432493   -0.56035849025624    1.24572225463818
