    19
        -40.91898901
S          -0.69853435956922    0.50702280331644   -0.68206111591635
O          -0.95387176318808   -0.91818064623814   -0.65829138292352
O          -1.23430834791330    1.17312642574333    0.50742245616472
O           0.73808885483242    0.78153303172107   -0.82796414647199
O          -1.42329081686959    1.14641588359435   -1.89919656539946
H          -0.88131656785851    0.87266571958623   -2.66919301425691
O           1.87987793419169    0.16975258528833    1.41930282730998
H           1.51870335471106    0.36337395181253    0.51246907255485
H           2.45922185420340    0.90365893683440    1.63489188821888
O           0.60729090991192    0.48639896237010   -3.44261646958119
H           0.94019223197643    0.48512585197024   -2.52373496188627
H           1.04549139424000    1.21144106008952   -3.89437471330457
O          -1.07032369299129   -2.21725164091856    1.56819613708151
H          -1.14813257336863   -1.81269773940126    0.66196595571653
H          -0.37790077265289   -2.87889068301810    1.50228354885533
O          -0.40581157366517    0.01990082423782    2.51794634967614
H          -0.86266108047507    0.59169989065571    1.73436062592121
H          -0.71409544664341   -0.94714110649066    2.29413868211786
H           0.58138045113123    0.06204589885445    2.24445480611901
