    19
        -40.91892640
S          -0.95118437119570    0.87213274956557   -0.62369297369053
O          -1.37545483505272   -0.04933209136470    0.40104578597225
O           0.43344685790576    1.32259006659966   -0.38847076726393
O          -1.12555922749596    0.39285857544549   -1.97791559808077
O          -1.84533407757962    2.16753598039153   -0.47191899298005
H          -1.74386387757246    2.62558029147290   -1.30108933956200
O           0.33219614456045   -1.75727801471463   -2.01965985487109
H           0.67451485194973   -1.86225025770461   -2.91006740660704
H          -0.31914654879959   -1.01074800126761   -2.05726697705919
O          -0.00941062590685    1.15924531190812    2.39421539024603
H           0.54881960168347    1.71754572436798    1.84498209755828
H          -0.74624937867642    0.90242240377188    1.81504440692147
O           0.45868606017041   -1.42757468286060    1.91316876664981
H           0.46273976585526   -0.57485994830314    2.40396970766172
H          -0.41599239915902   -1.43587764698573    1.49263500709730
O           1.73135193611375   -0.77670969418880   -0.13869052484573
H           1.30101290915335    0.17749035512542   -0.24093220238539
H           1.29832567986659   -1.14249737183981    0.76470578513786
H           1.29110152418228   -1.30027375943125   -0.90006232990188
