    19
        -40.92136397
S           0.34574796525313   -0.19743889216080   -1.32869985776279
O           0.18830917369015   -1.32957924690392   -0.39877991160498
O          -0.64676524948044   -0.20599346805580   -2.37455992355476
O           0.43888544305628    1.05153936521181   -0.60680192355130
O           1.75556866157191   -0.42766745795072   -2.02190560291311
H           1.55281737994279   -0.94062869266507   -2.79908704262492
O          -2.41023095614254    0.84027320028089   -0.71974833824741
H          -2.08378706302473    1.74271021220053   -0.66367355888788
H          -1.90173141957855    0.42653990885826   -1.45378003804749
O           2.12122567877452   -0.75957440778839    1.37447996728504
H           1.49795424744512   -1.12512665038295    0.71852220279739
H           2.86039061220950   -0.41171677153295    0.87283483736385
O           0.23932965106224    1.01786755081769    2.00505708981673
H           0.37257117498386    1.31971741448612    1.07732000102188
H           0.99753428149912    0.40749906216873    2.14093892681956
O          -1.53449174677615   -0.53471945280126    1.24351601607154
H          -0.84173001344825    0.15774570469092    1.73396589909424
H          -2.05973925296789    0.02401344697417    0.56501005210620
H          -0.89185858805495   -1.05546083538628    0.63539122481046
