    19
        -40.92071432
S           0.11525495378714    1.38795481776110   -0.50470797763701
O          -1.10559264262500    0.63131197735039   -0.65946380259149
O           0.03088335260148    2.44982090502349    0.47141361414974
O           1.25218202428578    0.48628376461056   -0.23169669321981
O           0.43507412630511    2.06864243248064   -1.89426737876994
H           0.94177094898086    2.84091734042082   -1.65940955534929
O          -1.02567668208919   -1.96812809142925   -0.27726117900542
H          -0.30920498720942   -2.20224585018388   -0.90412566214035
H          -1.30029286063269   -1.06763519345835   -0.56650113369003
O           1.22499889136050   -1.76562215116853   -1.68935369903360
H           2.10078190874481   -2.15477105004900   -1.69220538402561
H           1.31402868776102   -0.87872903121096   -1.28722696215652
O          -1.26461025004899    0.94092044732627    2.17374959038850
H          -0.78835435661211    1.64808953351911    1.67762569917477
H          -2.08782383709215    0.81094464161071    1.69374691167123
O           0.28766708666704   -0.97829789124135    1.57301934055576
H          -0.35387343661676   -0.28557025309421    1.98512452398848
H          -0.31780404825655   -1.55489895997096    0.86128443875162
H           0.85059110067797   -0.40898739828467    0.93025529894507
