    19
        -40.91146760
S           0.04806650141561   -1.13064391523267   -0.12882438530427
O          -0.78775646333605   -0.73230031392839   -1.23974248443796
O           1.47014867726808   -0.95477848626268   -0.46273287388204
O          -0.28785062014662   -0.48789278884115    1.12121117631271
O          -0.14143575130159   -2.68403251478497    0.08680275698111
H           0.18392339545604   -3.07340652683451   -0.71977008267770
O          -2.71926899895786   -1.80211397629579    1.21246158422716
H          -2.38026909041879   -2.68884620307440    1.07839232431392
H          -1.94241140593536   -1.23195828317848    1.26294753940732
O          -0.32252452631963    1.75736359110692   -1.73970079464266
H          -0.38282951748859    1.88223000246741   -2.68925583983265
H          -0.63694202937590    0.82962546387539   -1.56264063164554
O           0.89370993095048    1.74171486898219    1.80299894103506
H           0.45386066772797    0.86082690368683    1.73000357637528
H           0.18760433550843    2.38404808389589    1.90729799746525
O           1.87165999805132    1.47820042107086   -0.51400100507972
H           1.05106164916108    1.72704373228401   -1.08649058588262
H           1.60312614342732    1.71379244457439    0.45656704914568
H           1.83812710430217    0.41112749649129   -0.51552424188447
