    19
        -40.92136406
S          -1.36723068242554    0.08224671794947    0.21838079957187
O          -0.81315106876058   -0.04831742767460   -1.14075183225873
O          -2.14077862454555   -1.07071128225373    0.60721157210996
O          -0.33523612279415    0.45171470868568    1.16083146768248
O          -2.36965670694433    1.31086863563975    0.13765212394696
H          -3.20721576868116    0.91468672980948   -0.08542927585934
O           0.61559607419434    2.21937256033649   -1.28753141156254
H           0.10393703011227    2.89401500932080   -0.83778991420576
H           0.02176552736625    1.45118666264317   -1.38553082093540
O           0.07683232806012   -2.37662591925222    1.17312392798630
H          -0.83580354912484   -2.05892083468961    0.98678698008036
H           0.33643341921796   -1.93547191053188    1.98680260165523
O           2.12706973103834    0.70719850637967    0.30238457465612
H           1.32809245130824    0.71299250349637    0.87782563902141
H           1.91346465749896    1.39707152504836   -0.36422656169147
O           1.30752230286365   -1.34839305700830   -0.81165748885525
H           0.45234139686135   -0.88971937625975   -1.14735055556838
H           1.83338577844796   -0.50208297525798   -0.35759683261900
H           0.95263183630240   -1.91111078645008   -0.03313498315109
