    19
        -40.91039627
S           1.58111644989719    0.76863952625145   -0.80488248371402
O           0.71823786919382    1.05621893288807   -1.93258573143383
O           1.18619347980381    1.57182632707740    0.37263419392465
O           1.69206001773843   -0.62902399444036   -0.47391460820073
O           3.02409529533744    1.27437143926180   -1.18615445957787
H           2.87039583490074    2.15130967154340   -1.52551168613327
O          -2.28365569934355   -1.85687660570674    0.50720937800175
H          -1.43656730569531   -2.22588702269328    0.77403351789807
H          -2.14834899230272   -1.44337240320836   -0.35081817826232
O           0.37601255014597   -1.59267497523337    1.54263310722463
H           0.98947287257479   -1.74391821814401    2.26372397225104
H           0.92381213191947   -1.34496529194814    0.75398471994825
O          -1.65255033647308    0.40644749854891   -1.13430579598274
H          -2.28529297582626    0.99808799594321   -1.54622188168597
H          -0.76805300785268    0.61388641334074   -1.53589488754584
O          -0.87508634373604    0.63761801370390    1.30615042796284
H          -1.39725086112392    0.51511874616621    0.44398516966823
H          -0.55189398015562   -0.29310522596492    1.55912203798031
H           0.03730298099285    1.13629918259822    0.96681318767012
