    19
        -40.92079111
S           1.33590374935535   -0.21386967762999    0.61367509027367
O           0.99736074573148   -0.26809575344867   -0.80179852985294
O           0.50247790229073    0.76297014088711    1.31722850974211
O           1.35457638024186   -1.49714688333742    1.26717270327607
O           2.81099131460832    0.35775205215887    0.66193343176951
H           3.05781742658398    0.25249290739412    1.57542680524996
O          -1.21377637040752   -2.11505634032072    1.35635163185153
H          -1.28437080665722   -3.06375569175551    1.47823228210131
H          -0.25829395626068   -1.90080855268731    1.42669485591545
O          -1.39365290790436    1.57467471395086   -0.05099290131077
H          -0.84580214005022    1.96200723581010   -0.81282896355651
H          -0.64541618476049    1.31722576648246    0.64545637519152
O           0.32934149920291    2.02308188542441   -1.88955365594605
H           0.77006675509599    1.20735172383276   -1.55292686892843
H           0.14610869062907    1.87120896803859   -2.81889467283606
O          -1.62034486241135   -0.76775683767001   -0.87265088538384
H          -1.68036149411687    0.60989697962305   -0.40292773712977
H          -0.66277283897621   -0.78376198285894   -1.07413762786466
H          -1.69985288219537   -1.32841065393256   -0.06545985254898
