    19
        -40.92135395
S           1.28474971028094    0.75331785764749    0.46717619540862
O           1.75180004454717    0.34642608156389   -0.85876156131355
O          -0.03780855719300    1.35521324886825    0.40472355520115
O           1.37664354848934   -0.32344801193981    1.42860244463067
O           2.25992281699729    1.89637231474953    0.94951624401959
H           3.08469937584745    1.43529887811115    1.06834026067376
O          -1.89488973141506   -0.18245229293360    1.59833334330689
H          -1.80229223957359   -0.12325239053569    2.55072831693751
H          -1.29397323173925    0.49058020661952    1.22316056981261
O          -1.41021535524464    0.89257204113129   -1.80939255659094
H          -0.99862521086921    1.19266736177816   -0.96729654879383
H          -1.19412785326478    1.55339212248476   -2.46986010806104
O          -0.36925023842168   -2.05944960837774    0.53422049207090
H           0.39589392898459   -1.60674926493395    0.96169311136441
H          -1.14634085017818   -1.56577220840684    0.89026931011404
O           0.03062568786966   -1.21339219686033   -1.75651996708306
H          -0.68045283034175   -0.50159138000767   -1.91067466950189
H           0.85561169873458   -0.63867738692677   -1.49609975931209
H          -0.21197071351622   -1.70105539203709   -0.80815867288415
