    19
        -40.91889802
S          -0.85649017370452   -1.20917332300026    0.22072378195977
O           0.49465978768233   -0.94550661706696    0.76056920849984
O          -1.87557850007931   -0.85598139402534    1.18733651725304
O          -1.01712027678865   -0.60435071711360   -1.07472834248389
O          -0.93964439528205   -2.77683176089807    0.03874588849730
H          -1.23181857115074   -3.07843767047234    0.89364947685456
O           2.36403456408353   -0.84231381265301   -1.16492802646023
H           1.70311144206839   -1.04744555666424   -0.47398784355674
H           3.22558871908308   -0.93067782993321   -0.75459110684529
O          -1.81025708750192    1.74335444599909    1.14513211299913
H          -2.11612108772339    2.05337193264593    2.00028860267071
H          -1.96933970646235    0.76594171944712    1.12900737180772
O           0.74530348472797    1.15829644211852   -1.84709491902014
H           1.50572574951047    0.53803189093135   -1.88159131891296
H          -0.03754621370069    0.55591891688696   -1.80830816148722
O           0.66730676461259    1.56332483463146    0.58045203430956
H           0.70300808373830    0.56096600781122    0.78911653444398
H           0.74120036439548    1.53814366900669   -0.54231944249931
H          -0.29602294749775    1.81336882239041    0.80252764168679
