    19
        -40.92218952
S          -0.66648892740617   -0.02173561422514   -0.94648322199002
O           0.73618963053682    0.23435419239037   -1.25770939820596
O          -0.81065013203809   -1.22740466716809   -0.13698759436014
O          -1.28846434886803    1.13317810336472   -0.29878917216111
O          -1.43097836001588   -0.23866122866519   -2.28494332492243
H          -0.96994080227712   -1.01591198612672   -2.66381868139527
O           2.00804707668936    1.53845049832834    0.58742246180905
H           1.62222767335879    0.99239795347480   -0.14955032655968
H           2.32051477481754    2.34980418072316    0.18123454070485
O           0.31766883810931   -2.19920407492722   -2.43268949411815
H           0.97604790142195   -1.51156114130396   -2.26623619485885
H          -0.00634297645718   -2.44734891778789   -1.55680491035498
O          -0.50123870199281   -0.83496102205694    2.40723321974842
H          -0.58376644712273   -1.09360909263544    1.44991099088590
H          -1.32428677068321   -1.09787078580932    2.82485295880620
O          -0.17487243507539    1.60609311834556    1.85300913193977
H          -0.74199328323846    1.51926452739722    0.95794182882365
H          -0.27142858704717    0.65564679665935    2.25106545310391
H           0.78975586728864    1.65907917001565    1.48134174311978
