    19
        -40.91892636
S          -1.09832526345573   -0.62934076048443    0.67339522867911
O          -1.32988647090977    0.52351528194901   -0.21690831262311
O          -1.34178857617483   -1.88048667118808   -0.01172510264189
O           0.18897906567917   -0.53449187308630    1.31607252612081
O          -2.18801298582453   -0.50532734836366    1.81275388786869
H          -2.98608056778630   -0.84287451195827    1.41680135802808
O           2.19106378855697    1.02216404211601    0.25547242952926
H           1.96641975168629    0.21595793636009    0.74678163862533
H           1.68317578017196    1.72074318756450    0.72680453139177
O           0.14710609412180    2.15641497047370    1.55041418566653
H           0.06462067407975    1.21614229049912    1.78158970519423
H          -0.58760495633730    2.32618622145047    0.95359250652879
O           0.56955521282796   -1.95305509394898   -1.77047728029674
H           0.24329461212033   -2.42623116299873   -2.53905972449771
H          -0.12429446372474   -2.04840772251038   -1.06881821353452
O           0.67101368323985    0.58472361733162   -1.68160959007309
H          -0.22772663443367    0.65720407266495   -1.13967520891548
H           1.41330577857645    0.81862634988122   -0.95254097349702
H           0.74518547759638   -0.42146282575169   -1.85286360155553
