    19
        -40.91907718
S           0.22872560686074    1.55514423273333    0.55665301329482
O           1.46929562623415    1.67362604892698    1.28663851155869
O           0.39044897351014    1.29466432661348   -0.85523216124695
O          -0.67362137422470    0.55990477067610    1.17385405220958
O          -0.52627598070946    2.94005031077710    0.69067919317985
H          -0.30116751201421    3.26369032164547    1.55904884608431
O          -1.94182944825755    0.11033289610120   -1.20734933269312
H          -1.13690015459834    0.63466709727904   -1.38774862013770
H          -2.08227416231331    0.25435647048662   -0.26228427935703
O           2.43053556316345   -0.37113066523272   -0.04411136080035
H           2.10917853498586   -0.02462135801842   -0.88665654648658
H           2.35071469908703    0.39647195304822    0.56546664556059
O          -0.92624234084773   -2.29019171177891   -1.19399062726991
H          -1.36129382934590   -1.39955153258037   -1.33707760084129
H          -1.63264240395701   -2.92958020678051   -1.08579327138350
O           0.42975940300134   -1.63674434575415    0.83565304327941
H          -0.08473489461202   -2.00777881193027    0.01132658536043
H           1.33989716106763   -1.27267388208412    0.48683032233947
H          -0.08157345702898   -0.75063592413846    1.09409359735269
