    19
        -40.91941558
S          -0.81402943292437    1.39893910680526   -0.04810795846234
O          -0.94538746685003    0.87041271052056    1.29751941575428
O           0.55649639597922    1.86174366112233   -0.29771245148399
O          -1.27428568799583    0.47977341097917   -1.06468675136410
O          -1.72680444992866    2.67857371461881   -0.14281314465639
H          -1.38550938140685    3.23718773785312    0.54857281080770
O           0.52675809704256   -1.16009360776078   -1.95604739895400
H           0.69822741220002   -0.97810027914435   -2.88182878110336
H          -0.22644434954620   -0.57115213320984   -1.68988599223094
O           0.97254259199220   -0.87899192228276    1.91188014613311
H           0.38196058074805   -1.60957689229762    1.64304426762157
H           0.35386140715130   -0.12103608075566    1.97948561559493
O          -1.21467210487538   -1.83809354387003    0.70444308999871
H          -1.44309772331353   -0.91004892877539    0.86651125685379
H          -1.35815474141989   -1.98503210923684   -0.23265677010700
O           2.05015828859111   -0.11194724224596   -0.19967868327370
H           1.53990016591574    0.80678156714138   -0.24770216427097
H           1.71907925822103   -0.51026973175087    0.73739054046513
H           1.58940114040659   -0.65906942773399   -0.92772703731302
