    19
        -40.92120615
S           1.08388394757246   -0.36597744649544   -0.77043827399579
O           0.18543508335965    0.66331656009808   -1.29423827384243
O           2.40326969545973    0.12410777279201   -0.48015378351598
O           0.45123950061824   -1.11661958558049    0.30199377069763
O           1.23904947612895   -1.42457053098660   -1.95643479751324
H           1.99673440547142   -1.11839460840968   -2.44578981096445
O           1.42249598483247    1.84173161910221    1.31093799874560
H           1.81696613995184    1.27047126705355    0.62380393911135
H           2.15339774039957    2.17494583339734    1.83570714711920
O          -1.99638943141817    0.73087546698494   -0.13057248953778
H          -2.22300842749104   -0.23725615468368   -0.33107476111021
H          -1.10919145768934    0.84515768093168   -0.68633141048908
O          -1.88765222676141   -1.76968241487218   -0.67807248056209
H          -0.98664579488147   -1.73197136201078   -0.28182854710243
H          -1.76562573319278   -2.02244880857705   -1.59507580941126
O          -0.77141712348683    0.51752063615061    2.03287018381696
H          -1.61519203189631    0.72636531965801    0.86693001299603
H          -0.33520463595813   -0.29857079279892    1.72295894402948
H          -0.06214509097734    1.19099955824377    1.95480842151446
