    19
        -40.92120611
S           0.41117432007044   -1.00325117410890    0.85131464078428
O           0.66433435654850   -0.74485699067659    2.24207993028036
O          -1.00750368154592   -0.93963076856224    0.49876520379278
O           1.21720804175006   -0.23059205319766   -0.07996637949108
O           0.83869994404209   -2.51854102765971    0.58179259110011
H           0.69081155510936   -2.95523804522288    1.41529404393802
O          -0.37713490659564    1.70267900659737    2.02365101882135
H          -0.13813725505193    2.20026031439653    2.80844609803477
H          -0.04123294663183    0.79595085096511    2.16150079396639
O           0.39832922974630   -1.03225547582088   -2.43493344542832
H           0.89590523511613   -0.79059784795491   -1.61989158624290
H           0.26929180928491   -1.98178909217403   -2.39708986808815
O          -1.45254989044767    0.46539631335106   -1.48792294238701
H          -1.42188044710137   -0.12512211106321   -0.61669964037103
H          -0.83935310348967   -0.06390760077412   -2.09818217198872
O           0.11884551067707    2.16230017679143   -0.55182305470104
H           0.82817604059250    1.49440232495642   -0.49339217609554
H          -0.87786477423163    1.31227230600629   -1.18211814504738
H          -0.17711903786128    2.25252090413565    0.37917510909914
