    19
        -40.92136400
S          -0.76038030100645   -1.14920594836047    0.15746996006995
O          -2.17645890658928   -1.08781981154360    0.42173217470647
O          -0.41806285760980   -0.63137483458713   -1.17891902234430
O           0.06197715132281   -0.53271923562528    1.17408116189881
O          -0.35911112289425   -2.68489873537621    0.11902717427984
H          -1.15165215627422   -3.12625306890652   -0.17306168603285
O           1.79546996363816    1.29529656617605    0.45714467392001
H           2.28208332779085    0.71198481782764   -0.16650700767932
H           1.27707605443884    0.65053614932933    0.99132247399001
O           2.25777069142411   -0.82396356943603   -1.08949519001370
H           2.45838644909347   -1.63443564584065   -0.61826764237335
H           1.29944609323842   -0.84812590914434   -1.27218685223347
O          -1.96484432744879    1.47491609972260    0.99706333998199
H          -2.23247367323669    0.55069025325574    0.79034206015207
H          -1.52910607162032    1.42613494620793    1.85252429794557
O          -0.23816055231855    1.84916795167492   -0.84427469635943
H          -0.34562367098944    0.88737975606568   -1.18682528220711
H          -0.96789682176670    1.90010253061167   -0.12779522815908
H           0.71156074082053    1.77258768794798   -0.30337469955672
