    19
        -40.92343664
S           0.85278032898626   -1.39646343864076   -0.41018064381401
O           1.82971344221789   -0.78153757230381    0.46307564986754
O          -0.20094792144549   -2.07781350045971    0.34333209451677
O           0.30256839889579   -0.46106399670475   -1.37841340903921
O           1.59088669736753   -2.51111988043402   -1.24364683100619
H           1.91220298990229   -3.09945709314208   -0.56751464819359
O          -2.06837679957989    0.67762763749220   -0.92648753580824
H          -1.76350860002649    1.59073986284150   -0.96851581286240
H          -1.34121350457399    0.14828514016956   -1.31527531439286
O           0.48403587735145    2.10426239145920   -0.71968131126261
H           0.53320498635847    1.18079657335036   -1.05226831953074
H           1.28057763816573    2.54147274886275   -1.02373128423392
O           0.46755628606897    1.04409761008036    1.74849037078604
H           1.11657549930883    0.36098772714512    1.45444460416289
H           0.45209490720018    1.68409125168623    1.00631703659297
O          -1.59640801446270   -0.30090803410986    1.37537068250531
H          -1.96870504518831    0.12355406588058    0.51669918383589
H          -1.10126473044325   -1.15267189293416    1.02533135881957
H          -0.78177243608893    0.32512038976018    1.67265413905149
