    19
        -40.91145230
S           1.14649726329732    0.57603892650556   -0.95330234477609
O           0.19465203602286    1.66353314264185   -1.05944939384918
O           1.85946053797392    0.62942977657626    0.33644481707657
O           0.58195670221310   -0.73365162141399   -1.17845397498423
O           2.23536110335973    0.81387551388680   -2.06265722777015
H           2.35329450575899    1.75915041964947   -2.06159458389197
O          -2.23783376116523   -0.74935523496483   -1.39186391686079
H          -2.37230814847608   -0.18291624424652   -0.62756198614090
H          -1.28303732377474   -0.79393682271540   -1.52472431325717
O          -1.54701845562832    1.20893511510620    0.78410742004733
H          -1.93308276743048    2.03291412864677    1.08818111752700
H          -0.96009988455469    1.43756913898333    0.01213716361085
O           0.09703139125225   -2.32371854211683    0.86537489727261
H           0.81117276349164   -2.96028598072452    0.93479150466560
H           0.19898889209348   -1.87955218282434   -0.00841084204621
O           0.25028521207822   -0.09466635985558    2.03995172726731
H           1.03855340501306    0.25873709777418    1.38565988040146
H          -0.56638369254669    0.40992909073789    1.69481390410557
H           0.13251023101750   -1.07202937161638    1.72655615156424
