    19
        -40.92079120
S          -0.76744281659478   -1.15255670498200   -0.53942615919855
O          -2.08894123760472   -0.71043126904462   -0.90316433507709
O           0.26458934459346   -0.64249205041380   -1.44425684726610
O          -0.41453413180803   -0.90282460406906    0.85125899287118
O          -0.74049049990974   -2.72751439992893   -0.69356755522905
H          -1.09687030012660   -2.87000357429389   -1.56490281309102
O          -1.82097485164607    1.91880437678739   -0.88682824253322
H          -1.95626598354978    0.95196836969087   -0.99074866829568
H          -2.69570155340973    2.30358431891528   -0.80531749693098
O           1.92241772949258    0.79640464498839   -0.30084245353917
H           2.25319793955891    0.10668210511391    0.36641248896411
H           1.29399569587821    0.21757471222182   -0.91840660030414
O           2.13965058304684   -1.08690644519396    1.41879624959128
H           2.25042712372209   -0.91890783225628    2.35677824293660
H           1.17342075135403   -1.21606022363311    1.26852264093750
O           0.00959804898402    1.72489728935359    0.99967600839023
H          -0.64521919955306    2.03272858974803    0.32982649857066
H          -0.28212496121683    0.81470192657324    1.20996124918635
H           1.20126832877658    1.36035078040289    0.24622880001481
