    19
        -40.92136406
S          -0.06347375494505   -0.99398836124479    0.96469662059271
O          -0.79996877584203   -0.97208364122678   -0.27899754958824
O           0.93315333881866   -2.03278968654842    1.04599105828606
O           0.48989837449274    0.33732338513933    1.26940041441400
O          -1.12210505302820   -1.27253974307072    2.11473498379337
H          -0.62082355079056   -1.72050596232929    2.79024915724665
O          -0.90381587839121    1.26044521670698   -1.64647971405252
H          -1.05503031511514    0.33428979206376   -1.34847752205887
H          -1.30771129706864    1.78575677883829   -0.92061582779479
O          -1.67808285645868    1.85882816650852    0.83174932364242
H          -2.43143861183845    1.36002822902334    1.15247046703983
H          -0.88602964077280    1.38586493193133    1.14985424016121
O           1.81927525642012   -1.37996359960802   -1.34806781013355
H           1.11004226255491   -1.72555738416258   -1.89726395829020
H           1.64422029273979   -1.73422896138693   -0.44667746090857
O           1.45782919105819    1.10839474299474   -0.91303070292914
H           1.19847166932103    0.93386787891831    0.06524373258381
H           1.74062857033911    0.17510515096040   -1.22540850673170
H           0.47496077848574    1.29175306650631   -1.35937094528428
