    19
        -40.92079097
S           0.95742778965147    0.64469325015037   -0.93601046518270
O           2.22146422626986    0.82491601951797   -0.26996955009772
O           0.67648726578097   -0.76055922881847   -1.23717195695029
O          -0.16998913051980    1.27113892534513   -0.25990264645532
O           1.05546772796830    1.37693770029416   -2.33579011909330
H           1.86495643312071    1.03856357482518   -2.70559774742786
O          -2.54146687983396    0.47047122206322   -1.04317386868883
H          -1.67974104658527    0.92430286229266   -0.88692964983605
H          -3.20099591868823    0.95757262322352   -0.54505825387499
O           1.95159031065980   -0.72059931944561    1.85711780295823
H           2.13893221364335   -0.19941680965168    1.04654413527620
H           2.59564505953390   -0.43969466406859    2.50989149287805
O          -0.64411287423739   -0.26048731113336    1.87054912969981
H          -0.52344282366072    0.51978881002074    1.29241437877129
H           0.27697157582131   -0.55016098119704    2.06961104140509
O          -1.35998994373100   -1.59817568700164   -0.10749869802050
H          -1.12848780418820   -1.17145683132390    0.84157938206454
H          -2.01524017330374   -0.94137289300257   -0.51952893970747
H          -0.47547600770126   -1.38646126207814   -0.64107546771939
