    19
        -40.91966050
S          -0.41507841834696   -1.62201983729594   -0.35954350605815
O           0.97875597542587   -1.60874239947835   -0.77548918104212
O          -0.52060477893978   -1.67113960754185    1.10704793001724
O          -1.18492293763388   -0.53631172913192   -0.91418522452066
O          -1.04275930820838   -2.96733753056617   -0.88327272198068
H          -0.48951542109916   -3.63141173482714   -0.48358840696799
O          -1.64676656954861    1.78633665626391    0.42563057504778
H          -2.01712465010547    0.98596812537189    0.01838131781259
H          -1.05635974578660    2.13733396770642   -0.28482805869295
O           0.12193430979139    1.81181590379875   -1.53551149110558
H          -0.28307412023323    0.93931081341054   -1.67002017763911
H           0.99649748592607    1.63918352471265   -1.16834033770401
O           2.00430291584711    0.53491418806731    0.18008581834785
H           1.67900481520014   -0.30917457034453   -0.24891806456428
H           2.91149312729895    0.37109073527422    0.44458638022685
O           0.03677118314145    0.61551313438828    1.84694947079212
H           0.88334292999208    0.72157515765630    1.30566000148084
H          -0.71344081658951    1.19602816054290    1.34164787152123
H          -0.24245597613502   -0.39293295800310    1.65370781502388
