    19
        -40.91990207
S           0.62556160787000    0.41677650971648    1.31061476145653
O          -0.42641849045783   -0.57768858414217    1.16933745423540
O           1.87771738797805   -0.12284483170075    1.75279032475045
O           0.75713227218511    1.18401912571970    0.05073032258648
O           0.11972711131805    1.45642060678633    2.38378310767113
H          -0.81190118092351    1.56939699224027    2.20696683703255
O          -1.68508180258653    1.89401108696052   -0.66403730916208
H          -0.75551349476319    1.75171097928880   -0.38429823495294
H          -1.68407347976207    2.67080871590099   -1.22573112685376
O           1.67390927519941   -2.16249234592054    0.10017495710978
H           0.93433531380277   -2.62208793769060    0.50895396871323
H           1.94359663464495   -1.48074888057378    0.75786748793878
O          -1.66824146513663   -0.76992338604572   -1.12143485797698
H          -1.41389739971388   -0.86700792138163   -0.17424414586151
H          -1.97167770752181    0.15745236196574   -1.17368271612276
O           0.74876867808415   -0.61216212134986   -1.68660209350504
H           1.18090777188547   -1.34992756468818   -1.10948585974183
H          -0.31770211949223   -0.76006452141905   -1.61011248130937
H           0.87285111741812    0.22435170633248   -1.09159039599999
