    19
        -40.91892661
S           0.98744540736986    0.32313517495697   -0.98901704892285
O           1.34019815984543    0.31007381939694    0.44310709431877
O          -0.03469204615084   -0.65200121179851   -1.27795902233639
O           0.69058553833001    1.66397455267059   -1.44512253949188
O           2.29367493851385   -0.14606921695843   -1.74690094216658
H           2.85110734001195    0.62641583708422   -1.76186222031281
O          -1.49973796679872    2.23701785351726   -0.17097864169402
H          -1.50452138907449    3.18252031383232   -0.00652189337941
H          -0.72605776762136    2.06088618130457   -0.76549484383684
O           0.84346116949107   -2.46923917707221    0.51654608544794
H           0.69684305780787   -2.01419688647529   -0.32966292935102
H           1.44213336565681   -1.89420369041974    1.00204419291073
O          -1.68020723671786   -1.61030097792170    0.70522754230659
H          -0.89806060316762   -2.18692156848945    0.85930378583914
H          -1.59617144569420   -1.36948855408048   -0.23111547428708
O          -0.83129936290944    0.55880171710868    1.61602931704102
H          -1.23326420731317    1.27670786384486    1.00705372339800
H          -1.28857754522145   -0.36221885098366    1.33420090381062
H           0.14714058330145    0.46510682063117    1.24112291061200
