    19
        -40.92135271
S          -0.03838370736312    0.83553383958903    0.29490062815655
O          -0.53322393451032    0.57617744755494   -1.07207258349504
O          -0.72542222416584   -0.00506488849594    1.25168843021053
O           1.41163190782048    0.67974354026752    0.35638169580856
O          -0.38254489538943    2.31316179065661    0.62655360768196
H           0.28908011976860    2.84212329575258    0.13860609722263
O           1.27588239097161   -1.94972969467808    0.35888426429183
H           1.51227347452822   -0.99463819271682    0.35865565346729
H           0.86247664483548   -2.10589403793059    1.21300661224832
O          -2.40790982656130   -1.83791540488501    0.44969587681922
H          -3.24959770343850   -1.42126604827682    0.25510981403520
H          -1.85831337416859   -1.15251446679498    0.90357482946402
O           1.82385272951983    3.12305363811822   -0.53789224268771
H           2.45620453475571    3.59965124030660    0.00532808572046
H           1.96043228846748    2.17238439285733   -0.35714036231450
O          -0.61017310869397   -1.84897137070904   -1.35530251950939
H           0.20641870035478   -2.06107759467838   -0.77451476445891
H          -1.41292354112805   -2.02180515365853   -0.74813094815612
H          -0.57976048559833   -0.74295233227489   -1.36733216450054
