    19
        -40.91899951
S          -0.70067666304972   -0.52802133113281   -0.84205597726927
O           0.18814106679725   -1.58941835619837   -0.41819279023983
O          -1.04884708973304    0.33096312669476    0.32924889594529
O          -0.15889640771064    0.27853017499924   -1.91171633118017
O          -2.03829465086567   -1.13892502632633   -1.33964907717537
H          -2.44218488093455   -1.50287970675238   -0.52404288893542
O           1.69390283224244    1.95788434764905   -1.28638859194364
H           1.44790164626749    2.80172959895754   -1.67097848484591
H           1.04599919250899    1.29306070985265   -1.64942138265031
O          -2.82112281817594   -1.45407223744146    1.15517721951394
H          -3.66153511041978   -1.05389967562931    1.39035039369364
H          -2.15676343276352   -0.73994778614147    1.16389954257337
O           2.15094326052370   -0.90890396241753    1.10576076880460
H           2.93508093721059   -1.00164266006597    0.55984058704446
H           1.40377935852091   -1.30945181351713    0.58029962193726
O           1.06322717713125    1.36043863677878    1.08910326905290
H           1.39922423460395    1.73733483633799    0.18992217490963
H           0.09431609853278    0.98385255992254    0.84584882992496
H           1.60580524907415    0.48336857459605    1.23299421052241
