    19
        -40.92159000
S          -0.52152973755550    0.44018968156548   -1.30861486475603
O          -1.42419019730567    0.36602105225899   -0.15220772977900
O          -0.28346689876571    1.79324817291034   -1.73178987202997
O           0.67558022484361   -0.35354514181450   -1.07487542701640
O          -1.27181766291800   -0.29097185265939   -2.49771318551975
H          -1.82263815983952    0.38699277201271   -2.87719324065321
O           0.27070604006582   -2.72500363498910   -0.04145782595393
H           1.10855065391249   -3.18973890617409    0.00777222375480
H           0.41636806298220   -1.94056874957040   -0.62129611333012
O           0.22974600715549    2.54065694693734    0.77215362923433
H          -0.66038433257383    2.52800857217795    1.13166098563673
H           0.12002377553548    2.43482465550023   -0.19306311664750
O           1.59156077609539    0.34752765968226    1.33120564614740
H           1.25440142445390    1.27473618828142    1.31805325074274
H           1.60315744628578    0.09810215964046    0.38616634713244
O          -0.47548673223766   -0.99466741131828    1.68756724416263
H          -0.24721442088367   -1.83965369763302    1.17280533654929
H           0.44410677937370   -0.44549843531277    1.71855428756843
H          -1.00747304846349   -0.43066003156874    0.97227240484981
