    19
        -40.91376538
S          -0.61259291733773    0.60878784948847   -0.90283190625985
O          -0.33573888162261   -0.74270604682110   -1.37010820034897
O          -1.75291536813106    0.59498750014893    0.02427775329232
O           0.53110953250232    1.27397702380116   -0.32683955616482
O          -1.06315663786552    1.45014636011104   -2.14839940234837
H          -1.63782592132279    0.88758507092839   -2.66061454112668
O           1.80015263762289    0.43390107916910   -2.68528149769041
H           1.17523376973644   -0.26058943229023   -2.45234798928155
H           1.71803135986930    1.08066484724583   -1.97818695905493
O           0.09036229886998   -2.22369798584135    0.72156797585380
H           0.01045751714878   -1.72202135185811   -0.13121357788060
H          -0.30084743884833   -3.08548184054696    0.56326665919142
O           0.97445686184890    1.11280900547826    2.24105823447394
H           1.84353019639076    0.71297125521815    2.32328179731251
H           0.86642710854745    1.34392893845774    1.28623881301716
O          -1.01977339678370   -0.43596796258310    2.13655271121445
H          -1.46344826816801    0.04460738164944    1.28845546295202
H          -0.59395663431950   -1.26611391549161    1.70914060609232
H          -0.22950579817262    0.19221224372746    2.36198360673654
