    19
        -40.92079103
S          -0.64454548588785   -1.29057347034472   -0.35655137842599
O          -1.07229326379240   -0.74086002806742    0.93140027258383
O          -1.60859495204696   -1.06316154446282   -1.40201247653512
O           0.70765099268279   -0.86150453988800   -0.68603052667713
O          -0.53947693675322   -2.85592623726613   -0.14753418385176
H          -1.44786563132394   -3.12792241355382   -0.06219533712765
O          -1.86322713004261    1.56723966099035   -1.35984775400854
H          -2.23929168043748    1.84172390933220   -2.19825625296928
H          -1.87180869516440    0.58554114580905   -1.36491916924737
O           2.35257360236003   -0.65313597779194    1.34615649731791
H           3.20960569951388   -0.38213138412427    1.01092597072661
H           1.81642959323891   -0.92152909087758    0.56290440697299
O           0.64052216111169    1.80093717167721   -0.56906934449060
H           0.83234085670230    0.88522128126997   -0.85626659883086
H          -0.28481415398272    1.95355090679504   -0.87299398620263
O           0.45610482795116    1.00815905376368    1.78685861393202
H           1.29367738206016    0.43644316408148    1.83219964570622
H           0.54474862255086    1.52361171008439    0.85748694719203
H          -0.28173578873645    0.29431668257895    1.54774465392952
