    19
        -40.91892632
S           0.55687247486566   -0.61823168111398   -1.16897459606578
O          -0.80833625747136   -0.06073404564640   -1.19853999060258
O           1.51922230281520    0.31795639468220   -1.70905011976408
O           0.87925520158303   -1.12451625558812    0.14211612621998
O           0.52352690694417   -1.86248877919997   -2.14435171023556
H           0.58733874999575   -1.48283928693382   -3.01578958067162
O          -0.48138920217217   -0.25489286838654    2.37019627458862
H          -1.11861839107617   -0.93231219143900    2.04828002234204
H           0.36630440224740   -0.56020258710839    2.00997960019199
O          -1.61652542445357   -1.99611935517964    0.69223406138015
H          -0.68258149817307   -2.00292039634424    0.42331404261592
H          -2.07219997369445   -1.54005931667173   -0.02139583268640
O           1.50573950785087    2.23761284220660    0.04138989128063
H           1.64258255341333    1.50866771910730   -0.61661396668179
H           1.69289556246242    3.05746370532616   -0.42108992660977
O          -0.85580031755265    1.55383397662427    0.68388007498456
H          -0.95832382081091    0.91643201155868   -0.14695857190812
H          -0.74773473749581    0.87515371330523    1.49898013642974
H           0.06777195072288    1.96819641081193    0.53239406519113
