    19
        -40.92079107
S          -0.44509435092982   -1.26119977749366    0.64782738342107
O          -0.00973171511875   -0.22534315400394    1.58656646946979
O          -1.87923271207031   -1.35541046195256    0.55484048052235
O           0.22960696991970   -1.12213927289470   -0.63534150150166
O           0.07779921672615   -2.63231216592178    1.24047276190990
H          -0.46472303537193   -2.76029512383942    2.01234335944692
O           2.72162030644544   -0.31206422837997   -0.51774339714839
H           3.06645466499598   -0.27426616978892   -1.41215558428016
H           1.86937719422362   -0.80628445814213   -0.56602962065181
O           1.31111097811279    1.56503716025409    0.50116567056361
H           0.76252760825504    0.88782265811351    1.09346507625825
H           2.06066496534820    0.97698845308317    0.15102430193323
O          -2.56041952737992    1.10272194790194   -0.13579966159818
H          -3.43683982475953    1.06706482045516   -0.52372990213617
H          -2.37420830947079    0.19958564775396    0.20131979121252
O          -0.27220148297571    1.37721854533570   -1.41407605384036
H          -1.17282426153329    1.49015790925019   -1.02854907227622
H           0.65710952397742    1.67536960256065   -0.33466617723985
H          -0.14099621834376    0.40734808777780   -1.42093430406722
