    19
        -40.91892661
S           0.68148742389282   -0.70882822716156    1.04460105678657
O           1.12080362590642   -0.83081473211212   -0.32334457885356
O           1.39234998129287    0.28314753416958    1.82219291986097
O          -0.77711933129504   -0.50042586520759    1.11378999653842
O           0.93809302744308   -2.10921720418702    1.73326670985408
H           0.89723284558385   -1.92744337538782    2.66759301832791
O          -1.09288601517607   -2.11718570030576   -1.17979717933605
H          -0.18574591142050   -1.96480034256836   -0.86591849907383
H          -1.64808784548439   -1.94325051186710   -0.41406945490137
O          -0.39708852088080    0.15734040224625   -2.39544373380150
H           0.49805939964769   -0.01334392113221   -2.06234195454570
H          -0.85602027965032   -0.70201524995294   -2.25565326677692
O           0.93531310899905    2.47790982869734    0.50899358998434
H           0.92181455763510    3.20043647974417    1.14052161564298
H           1.23678213394796    1.67629460831167    1.00847258477951
O          -1.19483596882213    1.42529500304548   -0.39260056317783
H          -1.14827921421498    0.61813374045221    0.28086276565879
H          -0.39597728660730    1.99784644968745   -0.10735992931409
H          -0.92589575078809    0.98092106350651   -1.32376508758344
