    19
        -40.91898873
S          -0.31538658350405    0.72046962522587    0.77035689706078
O          -0.74289875307584    1.58105046982949   -0.33500711102271
O          -1.10687925593181   -0.49001627204563    0.84352713707114
O           1.11631977638213    0.40661368751245    0.66044895149243
O          -0.51402014654966    1.55255322314603    2.06815532314753
H          -0.00451390395778    1.06051561495894    2.74604008400132
O           1.52708894910042   -0.52964681256120   -1.72305575007969
H           1.43067791690455   -0.23972029472460   -0.77590771669559
H           2.29978903322822   -0.07215875850284   -2.06148588267688
O           1.31732893592309    0.08647117214252    3.26832191675156
H           2.07949468170539    0.55376034163060    3.61860646279848
H           1.46407474365711   -0.00992701609370    2.30700174051903
O          -2.10151663395632   -1.56646085218310   -1.27978756792694
H          -1.85816674610314   -1.19357999552639   -0.38936073118869
H          -1.72483130070046   -2.44895663339446   -1.30735060418533
O          -0.78692550434697    0.26040095894887   -2.41193196246859
H          -0.84332965323925    0.93998469363682   -1.58491442525232
H           0.16927666693090   -0.09570588098913   -2.31096419854564
H          -1.40558222244716   -0.51564726103734   -2.10269255282547
