    19
        -40.92079118
S           0.75482117065670    0.26392017666904   -1.25209154682660
O           2.05871683689525    0.77570474108824   -0.91740599995952
O           0.60843028903633   -1.15633830993098   -0.92731764344933
O          -0.35047573788508    1.04197072629913   -0.70994105782850
O           0.59883593387247    0.36830183642344   -2.82359220214015
H           1.39469957673360   -0.03870071459111   -3.15115995762383
O          -0.37977202862851    0.48484512613866    1.89692644305668
H           0.58660960446874    0.35802521700544    2.04626076198635
H          -0.42312459738360    0.96758347863127    1.04673051721713
O          -2.68520333718696   -0.15320682718065   -0.73197937583124
H          -1.87128855119464    0.37680116752278   -0.90392898929593
H          -3.33630867777311    0.45382804037953   -0.37429593260587
O           2.23213256794837    0.22003530326864    1.66070148068182
H           2.90649604491544    0.78701082171916    2.03962605555589
H           2.25807329902287    0.37466282294161    0.69153569026915
O          -1.16312709859622   -1.58346524652002    0.74771567451131
H          -1.93655988286179   -1.19364433479539    0.21861274878882
H          -0.38078325670525   -1.55454154332688    0.04187171013569
H          -0.87217217533419   -0.79279250174515    1.40173162337121
