    19
        -40.92174072
S          -0.71556793907208    0.33463357526435   -0.42360318908625
O          -0.92038169842006   -0.38547052755561    0.89644610465531
O          -0.09193732113621    1.62154080314790   -0.19814185558633
O          -0.02474073183165   -0.50732250743366   -1.35574781152417
O          -2.15475139227423    0.56687450574045   -0.93262601701298
H          -2.49751585795612    1.34833122334957   -0.42650273019252
O           2.35161038966857    0.49302345439060    0.08709879345598
H           2.45800866888794    0.09567488898720   -0.78126226112257
H           1.59444483854971    1.09688281423639    0.01120360777852
O          -2.39559993252082    2.77713274765103    0.40760152492852
H          -1.43029604409343    2.63897872948984    0.41001706715409
H          -2.56163498436908    3.57983180461643   -0.09322304965496
O           1.02539612332041   -2.88431813775460   -0.65556777714015
H           0.36941723558453   -3.57049641649555   -0.78934484840587
H           0.67008331574909   -2.07660566066980   -1.07279364277781
O           1.22751796117728   -1.41544511017901    1.55195143184578
H          -0.00983649635561   -0.84881879704216    1.26988976409632
H           1.27053317985256   -2.14385594929054    0.89014304393542
H           1.83525067523400   -0.72057143047788    1.20446185463963
