    19
        -40.92071415
S           0.99349962860420   -0.92005654305322    0.60033270632355
O           0.86189052628330    0.44473727007003    1.05539318963521
O           0.49793339403433   -1.90369037670889    1.53533200531028
O           0.38407477518395   -1.08189078428226   -0.73467838158546
O           2.53410009833308   -1.21119622858854    0.40411203601284
H           2.60602681415605   -2.15375813714018    0.52512517927682
O          -1.63729512153011   -0.48669827398614    2.07152780177442
H          -1.23407584458356    0.26949293326386    2.50807463254306
H          -0.91443076248734   -1.15359151839158    1.99632908583331
O           0.87500205045508    0.96050158117652   -2.40386792523614
H           0.72843093856215    0.67816073355864   -3.30782357889172
H           0.83915474405567    0.15557054935316   -1.84990365441712
O          -0.48197001325805    2.14050930456036   -0.43629316001429
H          -0.00037503365558    2.03083137948450   -1.28281020174306
H           0.13169994442253    1.75454610922893    0.23050606949781
O          -1.83086243450676    0.06494889549034   -0.40083930514289
H          -1.38549571480824    1.06702498392201   -0.45261728614498
H          -1.02644958535943   -0.51747609150483   -0.66094119413372
H          -1.94085840387281   -0.13796580651710    0.60304199111720
