    19
        -40.91940418
S          -0.75181407890913   -0.23153004500041    0.72492105128487
O          -1.03439165953987   -1.34288782780014   -0.18911648900498
O           0.50268243169230   -0.42429251940144    1.42179189489270
O          -0.78133388377668    1.04825440077451    0.00767917710265
O          -1.91637858213339   -0.21946100842526    1.75592190507644
H          -1.82097077184301    0.64902899497205    2.20052280889294
O          -1.40213187871970    2.31834159075663    2.23355396481270
H          -2.10639132572157    2.95370590379981    2.08438936332645
H          -1.01384552460446    2.11894918827831    1.35962589977063
O           0.41944845021759    0.88943344902892   -2.29711095609265
H           0.00047620103397    1.05588629378519   -1.41243084956226
H          -0.24544371549659    1.11020700582238   -2.95275606853558
O           2.47243508065960   -1.41617295721603    0.08703783390302
H           2.72071847420170   -2.22228625784089    0.54459326053545
H           1.80836375206884   -0.96089180410950    0.67541902333700
O           0.81416230357634   -1.56421057960003   -1.80256590336078
H          -0.03487707836774   -1.58968244444128   -1.15222129416278
H           0.76239076451826   -0.60053453592522   -2.15843654018069
H           1.60690103880496   -1.57185684790352   -1.13081810071663
