    19
        -40.92079108
S          -0.18051938300651   -1.30297967856162    0.68994689346429
O          -0.49187766769320   -0.13666489801265    1.51873807468619
O          -0.39982409043263   -1.01650152352482   -0.72097379054512
O           1.11336957429279   -1.86186512043402    0.98602776545550
O          -1.26078806522942   -2.39907302369344    1.05939299805352
H          -1.01701704875237   -2.65991992341250    1.94206792580242
O          -0.81531893982639    1.92794414289601    0.19230366521370
H          -0.69737769328352    1.13956202040683    0.88206369420275
H          -1.59142084774002    1.59738704714345   -0.37203642934261
O          -2.42981754772843    0.55902865910038   -1.24662064114093
H          -1.80330852471015   -0.18527216668900   -1.08417750509058
H          -2.49420623463199    0.65971940805759   -2.19853405630248
O           2.71573135456150    0.20584306545613    0.60995359188788
H           2.16267798039540   -0.57058569874637    0.84492208721687
H           3.60428758961300   -0.12973622557691    0.47713853260692
O           1.07659715755713    1.14438380363803   -1.22893149525709
H           1.82563372301185    0.97880151473847   -0.60954708104258
H           0.64474610385678    0.27011408269879   -1.31232600304706
H           0.03843255974217    1.77981450459652   -0.42940824680662
