    19
        -40.91893407
S           0.53998274611996    0.41636571275572    1.59725588373393
O          -0.26018393078790   -0.36401181368579    2.50656454665827
O           1.40879383872408   -0.35149429548567    0.72704851761831
O          -0.27070237268920    1.37119333715358    0.82601583195951
O           1.50063616758695    1.30660959916434    2.49454909610217
H           0.97148816422211    1.48065641746434    3.26713503063422
O          -0.83983626304275   -1.96615020002024    0.49051511843591
H          -0.78706011273932   -1.45976372122711    1.32641119669718
H           0.07880926397956   -2.11646311305431    0.24811752246615
O           1.78972601405870    0.06883103582233   -1.80029463520544
H           1.74274695450169   -0.17368764467748   -0.83929623691816
H           2.57221685578962    0.61360166182378   -1.90272732859013
O          -2.13084599257638   -0.74131096386595   -1.43672392075478
H          -2.97408700330300   -0.48017783851512   -1.06134881122768
H          -1.67770783168862   -1.29047235063737   -0.74189263401813
O          -0.48833111235701    1.17291003776350   -1.61618972126469
H          -0.39921724432989    1.34598208666826   -0.56335850494602
H           0.41497712991605    0.75406293515560   -1.85983718965565
H          -1.19140527136145    0.41331911739960   -1.66194377172016
