    19
        -40.92007395
S          -1.04760977525225   -0.12942885403117   -0.91343462957418
O           0.22934494797069   -0.86454051212584   -1.01415945093100
O          -2.09676492149640   -0.96938989736698   -0.38069846416557
O          -0.86863032690435    1.12728602715650   -0.23526023446766
O          -1.44540956708591    0.20848713184711   -2.41049384287680
H          -1.88208307507234   -0.58237651805521   -2.71260670957643
O          -1.28137808150669   -1.19226862507285    2.08500271953290
H          -1.70049065030611   -1.06989311225617    1.19719455807494
H          -1.62041917739635   -2.01995194244074    2.43308779832420
O           1.84504722662028    1.23130277802146   -1.51350916057642
H           1.29362681036991    1.86066518319049   -1.98265248276030
H           1.33265461009929    0.40188342153639   -1.48039922837231
O           1.36408745318800    1.54675233020892    1.08214149375005
H           1.85438892474407    1.58928485806461    0.22826831895874
H           0.42970091437670    1.64610446617019    0.79201709687049
O           1.13413179090576   -0.90094556307684    1.32801061431926
H           0.88144690184161   -1.02793286254395    0.33993260064900
H           1.33509478830780    0.18544011601209    1.35364434450653
H           0.24326120653444   -1.04047843517546    1.80391465829219
