    19
        -40.91892672
S           1.38832922138542    0.35677094444603    0.04978940048931
O           1.55088175050611    1.50679545612122   -0.81333488942305
O           0.49842643966419    0.66070103759780    1.18617195846334
O           0.97199044404630   -0.84823080524833   -0.62387841764996
O           2.80130808447907    0.05573798222675    0.69284051757499
H           3.16144705083625    0.91542781834906    0.89034666663326
O          -0.81991174226043    1.79922597895179   -1.83505124221493
H           0.12967499050025    1.69680589279289   -1.56898660761240
H          -0.95485436362591    2.73498996815832   -1.99997171206817
O           0.14028878859853   -2.10725657376047    1.61623610502560
H           0.13738647330296   -1.34337433806429    2.20057353844456
H           0.70371937141756   -1.84410172131282    0.86936402468329
O          -1.59983987444146   -1.79000432110033   -0.38659101048742
H          -1.22353073799307   -2.15075172424785    0.44796258718435
H          -0.82108346313760   -1.69786697346624   -0.95833954332834
O          -1.78086034031668    0.63247749125292    0.20768400463544
H          -0.87319233380057    0.68884846394293    0.73647239406184
H          -1.56372142546628    1.13329685101479   -0.65811771909062
H          -1.84645834370010   -0.39949143766858   -0.05317005531196
