    19
        -40.91907727
S          -1.18419283691839   -1.16281417692271   -0.16352992971346
O          -1.14312717567482   -0.07563655803308   -1.11429969223464
O          -0.63718416365064   -2.40565188046814   -0.65521026719942
O          -0.56366866883930   -0.76291695101515    1.11728462467555
O          -2.70784359134986   -1.42470346410495    0.17672582600138
H          -2.74266500276377   -2.32422199165755    0.49150760169714
O           1.34041397339186   -1.08160200780022   -1.75676199065439
H           0.73651000198237   -1.80798910549307   -1.48348047648942
H           0.74284384375591   -0.41736303916432   -2.12408563068259
O           1.42914635162905    2.30002663229218    0.44179324718877
H           1.72217335502039    2.84210885341575    1.17649371149045
H           0.42872962067363    2.27746736535560    0.47931098749118
O          -1.13361590507743    1.87641953118279    0.66116197516230
H          -1.15080008389841    1.18440243840747    1.33488838646494
H          -1.29298042815444    1.37814876642241   -0.16479425884788
O           1.78864183305688   -0.19820070135686    0.56669397868385
H           0.83374509980157   -0.48315634391687    0.91478979097651
H           1.78235497829546   -0.55400906804455   -0.41082846319729
H           1.75151880872024    0.83969169089587    0.51234057918017
