    19
        -40.92136407
S          -0.62488647681344    0.45111747791195   -1.15311779392900
O          -1.36585119770568   -0.44132848350251   -2.00955388934290
O          -1.25293109869227    0.60527507953493    0.17103437002281
O           0.77688128585740    0.12307906636389   -1.02197021185936
O          -0.69377435428717    1.89411766551399   -1.81179146643327
H          -1.52057319371195    1.89530071821190   -2.28571504035536
O          -0.29659706530262   -2.51551970488178   -0.78564239976466
H           0.59808541476757   -2.48272426286929   -1.13570098755631
H          -0.80899109950176   -1.87145949705190   -1.32526712273060
O           1.78578269521734   -0.17757694817431    1.37731760970725
H           1.69558000078853   -0.10066375131596    0.39990515689411
H           1.54409249611010    0.72414286399257    1.68461704586597
O           0.55559783689627    2.18567015264437    1.36971879998177
H           0.86470195207670    2.80187102935690    0.70351770532327
H          -0.21893387870071    1.73569677273233    0.98247120313141
O          -0.39281382115069   -1.35254605126712    1.48370356042122
H          -0.90376293412826   -0.55348272242539    1.09023010413330
H          -0.35397423281355   -1.99159863360229    0.68447138664026
H           0.61236764108814   -0.92937076118310    1.58177196984560
