    19
        -40.91892667
S           0.04679505486030   -1.17433243861715    0.82306023786824
O           1.34632789727293   -1.77537865446307    0.61321697562895
O           0.07889745884776    0.13634648369699    1.42334262019784
O          -0.74711109202339   -1.16623133444483   -0.42002353492628
O          -0.74345865193830   -2.11417710240088    1.81947260720071
H          -0.52116536634548   -2.99773048815533    1.54089505395104
O          -0.43319323113986    2.39361120170098   -0.06443237345888
H           0.06748174212067    2.01009380061344    0.67289416889006
H          -1.35762306067665    2.11206520320682    0.12139655951849
O           2.51969099106309   -0.07158060716021   -0.95820183789533
H           2.18168530375129   -0.71685804719299   -0.28551519834367
H           3.12307419770962   -0.56056279061537   -1.52202862864865
O          -2.43647209453853    0.80036971194912    0.70072158764501
H          -1.68905242090591    0.49575374118253    1.24221621199618
H          -2.58011613893426    0.09418170325485    0.06390680329137
O           0.22847446612131    0.67889322741048   -1.76070591803464
H          -0.03823591589672    1.50541940540893   -1.14214695623124
H           1.21397142344030    0.48197627066684   -1.56621159011445
H          -0.25997056278545   -0.13185929602681   -1.30185676852370
