    19
        -40.91821033
S          -0.22851823144846   -1.52625277730800   -1.24946309496466
O          -1.13923565447409   -0.42638274505748   -1.53038652143634
O           1.16839543987507   -1.06069312007571   -1.28882920515837
O          -0.54447760085434   -2.23547660817135   -0.03666095434726
O          -0.35932589349875   -2.54377516952582   -2.44776006947948
H          -0.09331674454865   -2.01642439541947   -3.19487363955757
O          -1.50665622968001    1.21355698104650    0.40461334927860
H          -1.38497912436077    0.58572229335829   -0.36598970797950
H          -2.38770239286120    1.57644491929614    0.29932577029747
O           1.85631996978325    0.14058536149328    0.74671542491186
H           1.62007089759466    1.10577187829350    0.54955968013571
H           1.65486756258444   -0.39905369845861   -0.15887849763719
O           0.84870548301020    2.48733211978094    0.38457580408860
H           0.87660291775487    3.08510651166332    1.13406555420723
H          -0.07231950454613    2.15072663778249    0.31739907541190
O          -0.19269631902777   -0.61733736962309    1.97299518301580
H          -0.82567448820400    0.06516086123186    1.69007268124701
H          -0.38023928397139   -1.38695560933370    1.38307684591002
H           1.09017921686000   -0.19805608095996    1.39044230203531
