    19
        -40.92136362
S          -0.45609552228320   -0.16840833296346    1.29962650617194
O           0.30526816518465    0.29586528147621    2.43270910197389
O          -0.93434919730730    0.94091697926000    0.45547303646258
O           0.21491614960982   -1.16945071385770    0.50148316358239
O          -1.77249712311688   -0.84920681580186    1.86893208355074
H          -1.94183936249162   -0.38473791771804    2.68372459996497
O           2.42266615429285    0.60404505316639    0.89606013485596
H           1.73640616930718    0.58059821931964    1.60128539207723
H           2.67336310194668   -0.31350392806205    0.75705977149820
O          -2.10897796429905   -0.44084272022922   -1.52418716458539
H          -1.83782264263719    0.14487948572639   -0.79226576153120
H          -2.53618939001026   -1.19560336839008   -1.11560613012877
O           0.47805671183813   -0.76641051789422   -2.07499321608032
H           0.49992830632689   -1.18329867870152   -1.18348011960211
H          -0.48579754268818   -0.68245659396521   -2.24704532404180
O           1.00574066454260    1.43086529121253   -1.05778331331204
H           0.85851135478293    0.52391415839226   -1.65129315048408
H           0.15352982722564    1.43052506393410   -0.48432836500185
H           1.72518212978241    1.20231005511960   -0.36537125535332
