    19
        -40.91893353
S           1.30465418743806    0.74869810390028    0.86773613926209
O           1.50921001914832    0.33610662225926   -0.52892613613196
O           0.94518865567969    2.14008097375392    0.97572519840095
O           0.42051475752243   -0.17015422049201    1.55768654911811
O           2.72204118221389    0.59692352348514    1.56579376992461
H           3.13412691021757    1.43850595121380    1.39571446618656
O          -1.84952332537317    0.40309373230321   -1.88605731408587
H          -1.63601333255492    1.09996878262210   -2.50968105237920
H          -1.83728181301380    0.82518271767853   -0.98504850624065
O          -1.55924212889170    1.46371186849782    0.49384995689077
H          -1.58930495906823    0.78939525107748    1.17920492086999
H          -0.69413938301336    1.90205979648630    0.62718930948220
O          -0.47037933440055   -2.41476594654195    0.62116883648798
H           0.10280110348442   -3.12029817089918    0.92650210917334
H          -0.17631499225060   -1.59275302765973    1.09274464326486
O           0.00716638803248   -1.28981887766986   -1.60321554497799
H          -0.80127820643716   -0.67322450310454   -1.80289020942099
H           0.72394001999420   -0.61267667401952   -1.18738739893890
H          -0.25616572872855   -1.87003589289480   -0.80010973687884
