    19
        -40.91907712
S           0.38499565711638   -1.45660016371118   -0.71453718199092
O           1.61182951884823   -1.36380633552261   -1.47070058703889
O           0.55332335737220   -1.31885137235354    0.71392071247978
O          -0.63693435023479   -0.51314926669722   -1.21564336655114
O          -0.21671953039152   -2.89757409521570   -0.97429695287791
H           0.01259232841017   -3.10508504582850   -1.87644597880839
O           2.37572604549773    0.63417489864508    0.04659164493041
H           2.36773491645281   -0.07192340907180   -0.63770289789474
H           2.11216814095829    0.17007029207365    0.85201643150131
O          -1.88449577520038   -0.44610446350041    1.22157267797258
H          -1.01989833143354   -0.89011691176637    1.32748833001659
H          -2.04425188245229   -0.51249641225553    0.27122533458731
O          -1.14044273477428    2.04324514592843    1.43223082604223
H          -1.47027121484710    1.09966302572317    1.49256757403129
H          -1.91569364375942    2.60670632420800    1.39937286245317
O           0.22633677427312    1.74865043292321   -0.67265067739943
H           1.17959389455215    1.45614155033472   -0.37559507092088
H          -0.19108334728684    0.84040379120711   -1.01160005364867
H          -0.30450981310147    1.97665200487783    0.19218637312022
