    19
        -40.91966064
S          -0.30363788270603   -1.40732128918804    0.92677672497116
O          -0.41330903087337   -0.38294367526619    1.95375205123002
O          -1.50332985856754   -1.42144532567580    0.07546211208227
O           0.90400732073360   -1.30367312341184    0.14597312841506
O          -0.27802546643551   -2.79920851515131    1.66157087740135
H          -1.08898954716553   -2.79164690428569    2.16059173295996
O           2.05295341529312    1.18583406045000   -0.14900871978555
H           1.90007129358376    0.29723916851516    0.21227415251250
H           1.38179703721964    1.74957655823067    0.25260016837397
O           1.00644676749170   -0.02064197818624   -2.25136868254819
H           1.55807736989767    0.60488265895319   -1.72097225840718
H           1.10053435348747   -0.85446783304526   -1.76193369645614
O          -0.56894760026472    1.86416632658030    0.73483819992260
H          -1.16161620003945    2.45062012397765    1.20878702762086
H          -0.49082187403120    1.03424240621691    1.28945596278383
O          -1.25853680556293    0.55622123532360   -1.37957959062808
H          -0.32731698629009    0.34639687340365   -1.87490946776367
H          -1.46568964062712   -0.33171727757353   -0.83188851203506
H          -1.04366664513905    1.22388651012390   -0.65242120065849
