    19
        -40.92136378
S           0.23628206422966   -1.19867468563506   -0.65801260086177
O           0.93818876757658   -1.24220084852337   -1.91674380449232
O           1.09916171659938   -0.74534926646449    0.44732176822178
O          -0.99675993555339   -0.44501707761642   -0.68977794469921
O          -0.15404942726768   -2.69282582706558   -0.28914053031014
H           0.52985481057106   -3.21928329646503   -0.69318846153290
O           0.63950231210852    1.36142177436775   -2.18455052968757
H          -0.29723359441245    1.40942794383349   -2.39512153673888
H           0.86729813916323    0.40523592954393   -2.23551719153509
O          -1.34826888895564    1.47651860020278    1.05695723345028
H          -1.24135809800667    0.89756063891572    1.84383692201015
H          -1.49995450368508    0.82662427213848    0.33312213673110
O          -0.68374919772230   -0.69337495363141    2.45337727480070
H           0.05987967156234   -0.81414114953963    1.83301620275751
H          -1.25957271619413   -1.44955487951433    2.32751793969462
O           0.99741162350585    1.75800529593044    0.31029541265900
H           1.22318320727414    0.76907941081982    0.47003302521792
H           0.91591637710575    1.79317168588250   -0.71008125904090
H          -0.02573233791356    1.80337642281715    0.69665593335310
