    19
        -40.91793130
S           1.54688018610254   -0.77421611103863   -0.31200993109662
O           1.55535102307734   -2.17927770136597    0.02460027176944
O           0.56344099722731   -0.42065167128502   -1.31476582406051
O           1.41470392242649    0.07541206706793    0.88269279306654
O           2.96040482296314   -0.42539753202277   -0.92898284422323
H           3.58671697363692   -0.81609581974937   -0.32565974482843
O          -0.32826790506972    2.03443490910652   -1.34994203543493
H          -0.66465398047168    2.15056631709501   -2.24054519429925
H           0.10309811953086    1.14697417701883   -1.33980341376600
O          -1.96842354190594    1.79983945093279    0.67279275053707
H          -1.85000358054872    2.58154387674297    1.21614731289971
H          -1.38978532960677    1.92972500410697   -0.12787215091953
O          -1.06449615515785   -2.16097180411973    0.08636455238366
H          -0.12318623712599   -2.44301831182752    0.13517885171389
H          -1.12379495840725   -1.72317500133550   -0.77109491480043
O          -0.87414433171607   -0.23330698310652    1.72841195240664
H          -1.38964460627151    0.57664072123960    1.34155179903141
H          -1.10633859490434   -1.05741633935773    1.15434707840298
H           0.15214317621428   -0.06160923810509    1.46858870122441
