    19
        -40.92343602
S          -0.03044254653947    1.19706777607329   -1.18784272577739
O           0.88135531145772    1.82441433608822   -0.25541903694697
O           0.63802729855328    0.18569713114736   -2.00833517878522
O          -1.21574132806759    0.66356384778024   -0.53541463945995
O          -0.53681383499481    2.30693650009030   -2.18465389239209
H           0.26678761734407    2.58714778560637   -2.61148227055867
O           1.60980238163582   -0.12560901151268    1.32921073722386
H           1.54364599842614    0.70006015729777    0.79279129452854
H           0.78140980160688   -0.12888743212257    1.85300231708204
O          -1.35613890376102   -1.93687916912991    0.04520499121893
H          -1.49480080686674   -1.83326398274824    0.99307814448705
H          -1.52714114408008   -1.05032233354122   -0.33556331573687
O          -0.96009813327636    0.15814507729581    2.05846924088869
H          -1.12562857441514    0.46852866296486    1.14088051982414
H          -1.19146048573977    0.88831734565205    2.63410995950135
O           1.11978551913644   -1.73501191224159   -0.50916677892349
H           1.44357094363185   -1.15074363367383    0.32554732778049
H           0.15367190299829   -2.01046124030889   -0.29237157546148
H           1.00020900288713   -1.00869992469100   -1.25204509843354
