    19
        -40.92175616
S           0.38519947196092   -0.93027857715690   -0.30222873751608
O           0.25381535729328   -2.20916942776920    0.31840804745667
O           1.07593651416734    0.05686412807480    0.49550457127593
O           1.04161940143947   -1.06335302882133   -1.67101764401597
O          -1.01270451739721   -0.36136960669909   -0.67628238565562
H          -1.58663355865321   -0.35094721771367    0.16087917332598
O          -0.02462758045072   -1.11533947777067    2.76559493112560
H           0.57762270268546   -0.40593730421514    2.51393774428507
H           0.15619602582334   -1.81894246700436    2.12096902079172
O          -2.26907025782641   -0.48859401131676    1.53689616236299
H          -1.50717579094906   -0.65435252611769    2.15160620968784
H          -2.81356620356220   -1.27902176143689    1.56504406407762
O           1.18672558645590    2.45216964032177   -0.63372623723216
H           2.08725622742052    2.77503358864231   -0.56555570201796
H           1.14465192231092    1.63371509489690   -0.09528556632470
O           0.36879441566937    1.12185328797050   -2.75539018757969
H           0.68312038453639    1.76404562875212   -2.07006689142814
H           0.83990706481972   -0.20622941511902   -2.19956865777944
H          -0.58706716572233    1.07985345244963   -2.65971789481940
