    19
        -40.92175620
S          -0.34844101064992   -0.23766023120819    0.96297892796936
O          -1.03209402115920   -0.51081911376943   -0.28045704965973
O          -1.08673764183408    0.56717827277055    1.88226642139538
O           0.09494181256065   -1.53731924147370    1.62374985696900
O           1.01617674701746    0.42968912870176    0.63099364574468
H           0.83670107582407    1.37076054905903    0.29569076317031
O          -2.20570446485345    2.00473599827133   -0.10393380492202
H          -2.20961422912692    1.22017963654124   -0.66410165555706
H          -2.11557732307129    1.65198465525750    0.79643405292552
O           0.31762036123063    2.76205418642073   -0.12061727619317
H          -0.65721460252780    2.61467488181856   -0.23816422823827
H           0.40910398732680    3.38628594389287    0.60332082284948
O           0.41916929740683   -1.89540939243693   -2.01303044061720
H          -0.17688688845105   -1.32522658274602   -1.48279389993539
H          -0.12395189653013   -2.60579198557209   -2.35980212559692
O           1.97044488863898   -2.25774874696821    0.08519420108037
H           0.85872947757890   -1.92986683273681    1.06051415979320
H           1.50373093414905   -2.23183240216261   -0.78797608559728
H           2.52960349648275   -1.47586871362665    0.10973369416705
