    19
        -40.92079115
S          -0.19300802713318    0.86991295286778   -1.18916639432809
O          -0.79384059431319    0.09662976030673   -2.24514601966105
O          -1.12313701064554    1.13955018355007   -0.09101981714000
O           1.06297446747416    0.32686330797114   -0.69037362612985
O           0.18257860692794    2.28204492371282   -1.79724220705551
H          -0.62170168351581    2.55768305586686   -2.22576601349805
O           0.37363046359483   -1.81045133475063    0.74510423910965
H          -0.41365731008255   -2.10546074027682    0.23002800610814
H           0.84533904511923   -1.21384120302767    0.12903413774825
O          -1.62258453119594   -2.05806603556005   -0.95839760037187
H          -1.41286556618814   -1.24738308002223   -1.47092250644449
H          -1.75147742701112   -2.75584718963251   -1.60370174835547
O           1.87522841436230    1.29052852180746    1.61004547119966
H           1.69398170385527    1.07465847919836    0.66485420545085
H           2.71252490153256    0.87667301042635    1.82909997016418
O          -0.38009747404777    0.16742805139384    2.06088106814463
H          -0.82387846400814    0.62622852196833    1.22223397347628
H          -0.11277300291949   -0.78095519360735    1.65213460257178
H           0.50276348819508    0.66380400780845    2.12832024901185
