    19
        -40.92025493
S           0.52139128905836    0.71549291314772    0.21072340232244
O           0.02064221648579    1.20489193362246   -1.07214217630290
O          -0.53466143267154    0.06272439977514    0.96890622554094
O           1.66551435888427   -0.18652871030369    0.04505239865765
O           1.05345806599965    1.93203311855996    1.01995426960317
H           0.46379166484241    2.68506171524982    0.78802675999230
O          -0.30188833856034   -2.42004242948712    1.67883868667609
H           0.27710014954389   -2.46848926694678    2.44194411771789
H          -0.49295872086811   -1.45552063787751    1.53630469103971
O          -1.16976743682866   -1.07146418866900   -1.61188742317357
H          -1.84761416555603   -1.05658715055984   -0.92913478516634
H          -0.76271304414610   -0.17426136308161   -1.58494749698545
O          -0.57152246064559    3.60416941096903   -0.18936426528637
H          -0.15003559651211    4.29437284626362   -0.70687086377431
H          -0.56555190702403    2.79689768013062   -0.74198655472336
O           0.76495350854327   -2.37588848943920   -0.61551894036992
H          -0.03013731092938   -2.00187570897885   -1.15691658050313
H           1.29803572857634   -1.47053357157431   -0.38258325985084
H           0.36196344178819   -2.61445252084077    0.30160181465220
