    19
        -40.92071443
S           1.16389063288067    0.40776137395055    0.82185523443097
O           1.33823436047892   -0.20544421842310   -0.47455587854027
O           1.48122371227847    1.81694519373964    0.85490450962412
O          -0.19228573505204    0.14231124831092    1.34165342580292
O           2.15335201097595   -0.30675587710527    1.82533468716583
H           2.32413344213156    0.35619243194305    2.48840621175275
O           0.26085879308826    2.26474262295406   -1.41740467603421
H           0.75353800022705    2.29397186611122   -0.56330878648746
H           0.82921631701807    1.77136062100282   -2.01616668188920
O          -0.71859727074211   -1.41587318333446   -1.57409695709548
H           0.19814130417240   -1.13211418154606   -1.35191688441228
H          -0.95017334590252   -2.03362449906287   -0.84869186509008
O          -1.06033418376465   -2.35624652397610    0.89517280740065
H          -0.67505112673533   -1.50903456783048    1.19524918641115
H          -1.79377194547101   -2.54707446060004    1.48171929928545
O          -1.60191563010016    0.70983412315423   -0.66473834130351
H          -0.98256306149076    1.42602731895403   -1.07039790164314
H          -1.34737760306928   -0.22709673891902   -1.17934650545857
H          -1.18051868086550    0.54411746064045    0.25632911606847
