    19
        -40.91893426
S          -1.62441641400746    0.61330007748346    0.05891332583648
O          -2.46717794858406   -0.45250343349954   -0.42098075234296
O          -0.93504717195790    0.25432506971444    1.30776573347303
O          -0.69312230465054    1.14765915541767   -0.91511170710137
O          -2.59094313102551    1.81359365211452    0.43972692146266
H          -3.37502849475753    1.36832657199753    0.74648937349460
O          -0.33224506930677   -1.53857395772147   -1.52851096595082
H          -0.07632177774389   -0.73960046749995   -1.99907514085294
H          -1.20530039039013   -1.32042280099953   -1.14345033242089
O           1.79367826756734    1.73092981629456   -0.48406591577699
H           0.85523360929633    1.56833827345586   -0.76216800349414
H           1.85370426490279    2.66397921282599   -0.27095957940926
O           1.48731301323707   -2.21062369343590    0.23662050260508
H           1.09216707403963   -2.90408284915987    0.76879154123826
H           0.83967574295776   -2.02057156380047   -0.49440499514743
O           1.51421346316971    0.04029916857631    1.38848999105810
H           0.45132219660448    0.16033144088381    1.43568140118174
H           1.61877035863016   -0.89723847575834    0.96010586133962
H           1.79352470201968    0.72253481311768    0.67614273080696
