    19
        -40.92120579
S          -0.39718203025516   -0.57016330958892    1.19183807447388
O           0.59500078203536   -1.28236799114746    0.38587753599521
O           0.12075242319269   -0.10102061784091    2.44755736411984
O          -1.09792395609498    0.42662564526181    0.39858148369099
O          -1.51380390221286   -1.65949519306884    1.53416135250407
H          -1.21650386350792   -2.04995613107224    2.35055426084548
O           0.61509319980041    1.85447955574025   -1.07815357019921
H          -0.21157250665049    1.65781971693842   -0.59788694369042
H           1.29033661477993    1.85396585397234   -0.36602132888276
O           1.92146382676257    1.42177585286931    1.20025092215024
H           1.31944300682300    0.83461998635411    1.69740789399270
H           2.27725052415093    2.04410786591237    1.83810206471457
O          -1.81878991745144   -0.87100023319392   -1.75915258777933
H          -1.75334529152866   -0.34173644807370   -0.93096280201997
H          -2.11963934882384   -1.74267620467960   -1.49598755735634
O           0.70637208838812   -0.48036062517853   -1.95177393113288
H           0.75669209877273    0.56358873609616   -1.73038785047265
H           0.79869512438457   -0.89579185103467   -0.98894896490055
H          -0.27233886256600   -0.66241462826686   -2.14505540605216
