    19
        -40.92120599
S           0.31023994004091    0.92923144567231   -0.96911640493613
O           0.84640519691014    2.21724205484052   -0.62470009519481
O           1.25016566504328   -0.16928229046830   -0.74443153072993
O          -0.99316646304769    0.62729281577905   -0.39996606448285
O           0.05935026302869    0.94537214485547   -2.54671654193473
H           0.71402476991342    1.55082377823728   -2.88166739321984
O           1.16782279018759    1.45462475112971    1.91264427382555
H           1.12223287664793    1.75490444169068    0.98432775004029
H           1.32805453817743    2.23917159548588    2.44137568001197
O          -1.52453237406960   -1.77725045839005   -1.29200918603669
H          -1.24220375609146   -1.82306650980956   -2.20737831427210
H          -1.50840276734250   -0.82320466140354   -1.04781122811329
O           0.26311586205967   -2.04984279885501    0.52354610876077
H          -0.49094762734787   -2.20331662412624   -0.13702747364248
H           0.82520945354241   -1.31886073224255    0.01503418083462
O          -0.75860876219270   -0.37739312251972    2.06785443101371
H          -0.16813987042968   -1.46766052732197    1.30825690122980
H          -0.00895082216051    0.21884800419612    2.28013468648622
H          -1.19166889288564    0.07236669328120    1.31765023040055
