    19
        -40.91892667
S           0.16187031979647   -1.19937665303015    0.76899554027359
O           0.86713411312246   -2.14090467302929   -0.07359897620673
O           0.91005058781119   -0.01371894605797    1.10579566711868
O          -1.15274732988849   -0.84980061062730    0.19852572810154
O          -0.15533276268791   -1.94056832938972    2.12946852962197
H          -0.40225252451375   -2.82304106784166    1.86874020588665
O          -1.24528313493912    1.42586145637443    1.86690055359849
H          -0.45060681444777    0.86917053784491    1.92193908710128
H          -1.92121758570620    0.85007853865229    1.49751725299214
O           0.32879353998877    2.40894212022747   -0.05564007745557
H          -0.36032140716997    2.40292551714942    0.64669643319680
H           1.01797800260709    1.82929205372594    0.30607849588582
O           1.37407270225750   -0.73763576618787   -2.20062654022063
H           1.37555963610376   -1.33475756716731   -2.95195035947223
H           1.30804301783726   -1.30726203681800   -1.39181717836457
O          -0.62566409024622    0.72752233452506   -1.64191288823795
H           0.18558022879996    0.23019485030076   -2.01886172060588
H          -0.97727620514399    0.06293913288848   -0.90607443892131
H          -0.23838029357386    1.54013910845545   -1.07017530428434
