    19
        -40.92139830
S          -0.96425741959406   -0.16165552404676    0.71639900489908
O          -0.05217453703654   -1.29871552246206    0.63809878366657
O          -0.22403976789630    1.06177214525510    1.02055466799100
O          -1.75406471603726   -0.01608953588084   -0.50363867917102
O          -1.97509409227379   -0.41740397428943    1.87069494255953
H          -1.39192465148686   -0.50795331202986    2.65199557795966
O           0.28512374307330   -0.49105192319085    3.22241052023982
H           0.45295256434253    0.37181579476859    2.82160195756936
H           0.53731129329173   -1.13281593683654    2.54460939166579
O           1.05846159841480   -1.70706611687784   -1.67317130355139
H           1.99641448926929   -1.57440017384141   -1.51861844746765
H           0.62414163169316   -1.69607885539779   -0.77945887302884
O           0.93311462206571    2.01750881443471   -1.08129491847211
H           0.55637872684392    1.69242207776979   -0.21628385298362
H           0.67409639162543    2.93890701790341   -1.15038745181132
O          -0.28210332436728    0.28102693118409   -2.46127022058421
H           0.26301508623542    1.05824500708332   -2.05604067041783
H           0.29918182103929   -0.56425040996284   -2.32216973086323
H          -1.03653345913864    0.14578349638034   -1.72403069815908
