    19
        -40.91821034
S          -0.56277491540462    1.33148395509013   -1.36148667750817
O           0.48220529731901    1.91257513947934   -0.50129270484126
O          -0.09879565678101    0.08601077140145   -1.95436266237443
O          -1.83104094475491    1.20822557866304   -0.69061966342051
O          -0.74415347772070    2.35973704650484   -2.54392227154946
H           0.13734932154762    2.42130616500270   -2.89914720444705
O           1.98496805321420   -1.30729130267054    1.18719044992807
H           1.32453365892910   -1.63882356336759    0.53903405883491
H           2.03997874547847   -1.95682607136970    1.89068075419070
O           0.64529011471201    0.83483733927850    1.70617236242497
H           1.30940539888076    0.08395763087356    1.55930522033011
H           0.62086344908102    1.38487104495813    0.78529007724772
O          -0.09337982490061   -1.93578475975936   -0.37958264384761
H          -0.08949596283098   -1.16346899345785   -1.01712784427414
H          -0.22206254099250   -2.71378604246589   -0.92472490810372
O          -1.52511203195044   -0.36707262288911    1.35955487084838
H          -1.86514001718626    0.24523423261037    0.66306692610967
H          -1.21358027300896   -1.14598721244312    0.86667507052329
H          -0.29905839540189    0.36080165407725    1.71529676935372
