    19
        -40.91836656
S           1.65591202261384    0.50732709185341    0.94371924313461
O           2.17952430454777    0.56184757775332   -0.40879232516759
O           0.66832291732191    1.57441417113705    1.16988064764588
O           1.14812511555509   -0.79407062877841    1.31218631509838
O           2.85774339536839    0.82357916155569    1.91528072467153
H           3.21627970134138    1.62394933164940    1.54389126492636
O          -2.66066492788877   -0.44123293068155    0.27261103088544
H          -1.95172160682633   -1.11553359111653    0.17755829092726
H          -3.36677887961653   -0.68725244897025   -0.32790315616984
O          -0.52977752926535   -1.98536799031508   -0.22827842680906
H          -0.43909323570410   -2.92838505566291   -0.08141727097671
H           0.12440244562807   -1.55656250770550    0.39153702674889
O          -1.16362226826512    1.52023771902017   -0.47286361434117
H          -1.84160694531762    0.86851310265562   -0.09501209622783
H          -0.40400819718497    1.63207582110687    0.27670165417394
O           0.17814343291561    0.03146869874481   -1.97345809875240
H          -0.65811785637262    0.97797393382678   -1.22631555267791
H           1.05149133836247    0.23436352770137   -1.55192873979230
H          -0.06455321721350   -0.84734497377675   -1.63739690730023
