    19
        -40.92079078
S           0.42063701524647    1.37174100053728   -0.38799430213572
O          -0.88623930324949    1.30866618636249    0.26940744031238
O           1.46571245609177    1.80896147347854    0.50129738184498
O           0.71423707844618    0.13057810943374   -1.09096448726692
O           0.28227422749790    2.46479951713533   -1.52407070455478
H           0.20453815892611    3.27948209853199   -1.03743791820552
O          -1.34469849580832   -1.05213019695425   -2.20479206958076
H          -0.54403796586915   -0.52407364571695   -1.97434249285785
H          -1.03211484619244   -1.84368330572893   -2.64749351188953
O          -1.83489245423703   -0.97732105278666    0.30611825236185
H          -1.86514678306312   -1.12019531104850   -0.69842168965863
H          -1.55638882395963    0.03700855967289    0.37320228161503
O           1.31497583392243    0.04545576586195    2.46349332132092
H           2.15072494808080    0.05590217563120    2.93394606527755
H           1.36120739417190    0.77514575395204    1.80817461400332
O           0.48198742808530   -1.77976078535244    0.75437436614783
H           0.80704798822704   -1.24662086019491    0.00084132337485
H           0.78999725440808   -1.28006762999929    1.54675591085689
H          -0.92982111057154   -1.45388783221383    0.60790620851632
