    19
        -40.92136411
S           1.33148426802482   -0.37954977889559   -0.07312026189440
O           2.34312212278861    0.24966303145756    0.73904629383058
O           0.29844715555241   -1.05433166286091    0.67997974043092
O           0.74310238508082    0.55030065265385   -1.05322638061022
O           2.05744758444811   -1.49071320219017   -0.94453904827942
H           2.94512267405637   -1.16079219051448   -1.05154284821823
O           0.46978496007381    1.33249414401592    2.24336736087528
H           0.17086688628771    0.56096357231975    2.73271196844483
H           1.28753686455827    1.04301073630744    1.77862517066087
O          -1.11838017910202   -1.04377952816851   -2.14868126526886
H          -0.38846189268013   -0.43841273806501   -1.91844341984028
H          -0.72938841740883   -1.91814192601626   -2.20627367404220
O          -2.20711495006155   -0.44980805648738    0.20998955201526
H          -1.39595538912993   -0.88110388729862    0.56415040053235
H          -2.17395746629432   -0.68545608024837   -0.74346883816894
O          -1.05041868214754    1.74113327763209    0.23481793722403
H          -0.32481147245282    1.42567207594564   -0.41995969466701
H          -1.71107733555008    0.86832479731125    0.24999300671033
H          -0.54734911605223    1.73052675317039    1.12657401023061
