    19
        -40.91677611
S          -0.63246957793469    0.81891706591678   -1.08413475809784
O          -0.78439452504955   -0.61661864060919   -1.26288934763951
O          -0.77562268559713    1.15800012987656    0.34432578753469
O           0.57112543783058    1.36204741264460   -1.65218391351476
O          -1.84788019591604    1.50484866623913   -1.81435241489113
H          -2.61294658805896    1.00761478245128   -1.53985520435201
O          -2.19273019038226   -1.21622102026021    0.96414259674566
H          -1.85844097802005   -1.05406517238980    0.06454001573980
H          -2.13671848496503   -0.36651611531252    1.40999364880186
O           2.74056688515669    0.84886167009054   -0.32117580238734
H           2.00229875689014    1.03351831733262   -0.95604222410255
H           3.22975767641863    1.66932999234735   -0.23066327646656
O           0.36853151455147   -2.15460970531940    0.62301940552278
H          -0.49687961820438   -2.27569627198137    1.05205577922613
H           0.13844935709525   -1.82662265353270   -0.26942006095079
O           1.14240078820021    0.07215773568579    1.48046805032446
H           0.91802673166042   -0.92758357209699    1.22477016917929
H           1.91438866718899    0.36006686479505    0.86320392819565
H           0.31253701913058    0.60257053399567    1.10419764095278
