    19
        -40.92120501
S          -0.40346642035296   -1.26622244534253    0.36993092639579
O           0.16808210478049   -2.43833733985252   -0.23345776257570
O           0.52592422634734   -0.55676365341003    1.25020400850195
O          -1.05688300256712   -0.34974386519391   -0.55007019106136
O          -1.57892222317989   -1.76855234242002    1.32768302100532
H          -1.28471466987381   -2.62169105402406    1.63246252669467
O           2.02905541521420   -0.96200164458605   -1.44903839130248
H           1.40324469577106   -1.54530241034938   -0.97764807845829
H           2.44289661512521   -1.50246599910056   -2.12519409360521
O           0.70679218221758    1.34099952155868   -1.64356295921339
H          -0.12049338158569    0.82830051788499   -1.57417213421324
H           1.39524796468064    0.64406399274045   -1.69840851416377
O          -1.91019816479207    1.59063648788998    0.98740328911523
H          -1.79185908984809    0.84704567822026    0.35233219660995
H          -2.25970977941684    1.20209911013806    1.79146850661925
O           0.62942404664533    1.87172811214334    0.79369506170612
H          -0.36310355707340    2.02297081080807    0.93705255196992
H           0.71832201759293    0.86003403791379    1.07398495250351
H           0.75036101032044    1.80320248500095   -0.26466491661911
