    19
        -40.92217272
S          -0.92384771560433    0.98112446839468    0.30310902957438
O          -0.73821697647858   -0.18603283125496    1.17497740212245
O          -0.69905826626785    2.22869806556555    0.97519696668940
O          -0.21941108527335    0.80520186658502   -0.95457985709154
O          -2.47141164786660    0.94747214212144   -0.10040714498004
H          -2.89019445185859    1.55651946731415    0.50075846201385
O          -1.12314150159923   -1.46820911454824   -1.87608489959796
H          -0.85858812100517   -0.53174972074745   -1.72444416481627
H          -2.06195170274633   -1.51331021542700   -1.68501097230256
O           2.21863775759307   -0.25936026831910   -0.61178044518854
H           2.31858852789845    0.24870407114028    0.22352803519672
H           1.56504655960546    0.26348676424099   -1.10895770134315
O           1.70733029098162    1.18614039672113    1.57631098222595
H           1.46137758190208    0.67608873930440    2.35172904843966
H           0.93171241581619    1.73819101289962    1.37228614275671
O           0.51956023913094   -1.97649514191339    0.02201838285249
H           1.35696755600231   -1.37576984903452   -0.26390230640700
H          -0.01998144665897   -1.29756031014369    0.62530973096003
H          -0.07341801357013   -2.02313954289776   -0.80005670110563
