    19
        -40.91885168
S           0.05182616424722   -0.50806204329045   -1.11768878082376
O          -1.27450483938832    0.07173016425158   -1.09409347521891
O           0.97469411929248    0.34017131762640   -0.30134989972854
O           0.10317035435135   -1.87787823944700   -0.67050570578265
O           0.60532672620915   -0.45801751838143   -2.57000769460474
H           0.69965174425040    0.49981652880827   -2.74614644098203
O           0.07998918446801   -2.31299956596037    1.88304660852836
H           0.86700899771259   -2.82797543812348    2.07304737915867
H           0.00669238801268   -2.27811229489072    0.89261622791244
O          -2.15145928543158    0.79430994774471    1.21662385996512
H          -2.40585817582313    1.71496775738287    1.12494710480588
H          -1.94909857955327    0.47187640606753    0.29442700659420
O           1.13835690297859    2.11372598632966   -2.25222012345447
H           1.14393542326302    1.69293463597985   -1.37138022190151
H           2.04496981749396    2.36331237188529   -2.44556951047689
O           0.15886839919561    0.20638067785715    2.02713301355947
H          -0.82463423393891    0.49292375202360    1.85305373221575
H           0.12942172491739   -0.82200366787297    2.13877216043822
H           0.60164315778706    0.32289922171346    1.06529472978234
