    19
        -40.92129519
S           0.50870589686457    1.06481648210623    0.22818000387163
O           0.19148798013809    0.49478391183215   -1.10758601006382
O          -0.70937540317629    1.08017324078974    1.03200404916330
O           1.60353636931109    0.36208379959379    0.84343637962742
O           0.95344818616347    2.53281696079879   -0.02350936897320
H           0.15695079239664    2.94322989182452   -0.42183862880418
O          -1.53991067433443   -1.38147397947459    1.23378592261934
H          -2.49899191636147   -1.35594514063829    1.24265832739650
H          -1.23186319161659   -0.44213064937283    1.30132982620248
O          -1.50585041918699    2.71741438388315   -0.94436828748308
H          -1.32241475546775    2.05580674225547   -1.62010289636687
H          -1.62185377876887    2.21881916832903   -0.11929170684003
O           2.14388216416151   -2.12486981031190    0.28002950966114
H           2.92833617479798   -2.11013147187056   -0.27251700086484
H           2.04244429288685   -1.20821368693550    0.63885053845110
O          -0.12923427086211   -1.92272693650632   -0.81039899110688
H          -0.76098067601003   -1.87603235368045   -0.00651925674773
H          -0.00007360758065   -0.87321329013649   -1.05604203505396
H           0.79175685665541   -2.17520724245338   -0.41810036466563
