    19
        -40.91885161
S          -1.22752717998439    0.03764040250818    0.00278414145318
O          -0.16210909153150    0.27760694950378    1.02499443057220
O          -0.89454840136611    0.75449418106901   -1.21009057745839
O          -1.42990271123729   -1.37731745864565   -0.18704821223205
O          -2.53259451847535    0.63099805670375    0.60494448084475
H          -2.27343037083907    1.53783076008262    0.86544653807370
O          -1.14248585974682    2.67291321162399    1.55142615637529
H          -1.24585420333723    2.82716374661115    2.49328441028864
H          -0.53617606358193    1.91375742638038    1.45539392592243
O           1.53146785117437    0.50852857930681   -2.03687679395511
H           0.55422415297753    0.60008651168419   -1.85784730452691
H           1.86655471875442    1.40192789493400   -2.13880016181511
O           0.67005629496951   -2.88442648975961   -0.35800462307333
H          -0.19972059883832   -2.40516230646201   -0.39451235256124
H           0.57923811101354   -3.54726887852064    0.32982756456915
O           1.90317964020747   -0.73427015024108    0.12113867571219
H           1.55267631667524   -1.68763969086863   -0.07726625118403
H           1.91405918396823   -0.24806038622458   -0.79715445574607
H           1.07289272918840   -0.27880237969604    0.60836041873300
