    19
        -40.92120572
S           0.72553229859170   -1.06619402109232   -0.48462704686871
O           1.25851400401401   -1.06500998232645   -1.81914129354699
O           1.40010685119948   -0.12569993017134    0.41039703099239
O          -0.71927542086266   -0.93073471457588   -0.39332186842315
O           1.02715987885735   -2.51095262830944    0.12712367128244
H           1.81878493611922   -2.79415666476950   -0.32053182567410
O           0.60945956176498    1.50704108822243   -2.11862600641320
H           0.67333519972804    1.72353307372420   -3.05128259919641
H           0.91600499399986    0.58396285033624   -2.03018720226719
O          -1.18904481965970   -0.98458114725404    2.18268707892613
H          -0.61909748957705   -1.64934317036677    2.57382560745806
H          -1.14726305278916   -1.12667705295227    1.20893648930513
O          -0.16862898053591    1.31019249207279    1.67349701456002
H          -0.66608259358154    0.53293820119270    2.09410640473402
H           0.61309428604781    0.80228943218496    1.18361273910688
O          -1.45356352986755    1.64091231754775   -0.43956144548498
H          -0.77022454886931    1.60980909919867    0.84344579243625
H          -0.75696612180808    1.86675059307179   -1.09235105834861
H          -1.55184544282838    0.67592015424853   -0.54800148254840
