    19
        -40.91376549
S           0.14269215353165   -1.23792509081847   -0.08665261250436
O          -0.11611707076892   -0.71371850711744   -1.42074839164489
O           1.54058262498049   -0.98446028934516    0.28946078209350
O          -0.77258506597451   -0.75455051595548    0.91888572458745
O          -0.02279898634331   -2.79673085549480   -0.15774880168189
H           0.37412942770619   -3.07314422329050   -0.97930581899263
O           0.47400652767544    1.81655937708910   -1.39678379466844
H           0.88318591715343    2.03697215340374   -2.23626361485577
H           0.16049650297649    0.87837839254574   -1.47866511991225
O          -2.72049767929751   -1.53008450116712   -0.94795616935516
H          -2.46193080087431   -1.40673141308165   -0.02987009249333
H          -1.97097991177960   -1.20402976265157   -1.45694933023608
O          -0.18640293511012    1.38681953973596    2.29239413402554
H          -0.47815260949949    0.51561839254255    1.92802050733242
H          -0.90130670151254    2.00342666178123    2.11747589836831
O           1.79913797117134    1.42414102974534    0.72948826318241
H           1.82383319476086    0.36257939865468    0.58935302620042
H           1.35271430016004    1.74068165923653   -0.13861623294009
H           1.07999313106034    1.53619855418769    1.46448165349019
