    19
        -40.91821041
S           0.23237896244569    1.69472705510764   -1.00795217757815
O           1.20104339954951    0.67786025305632   -1.38957135869242
O          -1.14010808368823    1.19304493104671   -1.19209257845205
O           0.45592946689775    2.23243301944900    0.30913228735092
O           0.38272849905837    2.87781872012749   -2.04045855169039
H           0.17682316880170    2.45505026117267   -2.86863092922818
O          -0.76775852217129   -2.54235292134649   -0.01697363614453
H          -0.80962862255273   -3.23988635992317    0.63990476228576
H           0.14127462356067   -2.16962115688443    0.01484331899765
O          -1.88556480997056   -0.30526174276287    0.61350207400914
H          -1.65901712153606    0.36318480859239   -0.19448127496578
H          -1.60098889546789   -1.22455659384534    0.29643103805636
O           1.53025882848874   -1.20894724340595    0.31325173534820
H           2.42897067256265   -1.52554305928467    0.20788206513390
H           1.42434798702366   -0.48154645693757   -0.36684996161669
O           0.06570342811062    0.33473334193914    2.04850621930651
H           0.25252956062330    1.18618803223140    1.58405580855992
H          -1.16783723945225   -0.03751674518901    1.34106220667521
H           0.73891468725880   -0.27980812312534    1.70843895264305
