    19
        -40.91892667
S           1.09145360353794   -0.25717599403053    0.89570827454041
O           0.61487504499375   -1.22616401727304    1.85902707111781
O           1.09933487672586   -0.81688501553378   -0.46885853881200
O           0.40767102718780    1.01186433172281    0.92889801679507
O           2.60770878808044    0.03160460567459    1.23956867679494
H           2.96640410769836   -0.82045373409090    1.46982543255863
O           1.23170676378551    1.80286560747085   -1.51778228580327
H           1.18576285445460    1.71167205444843   -0.55116899528221
H           1.55841429102066    0.95320129991072   -1.82779616432646
O          -1.39348756539022    1.70731474735575   -1.03069067970114
H          -1.15505526163698    1.77413186436859   -0.09245896369549
H          -0.55773291547918    1.94592943423489   -1.49206243745385
O          -1.88227774295246   -1.51200565520931    1.20237290885339
H          -2.13901443414269   -2.41286522840034    1.41122091517884
H          -0.97265135721825   -1.38723655146522    1.57671701683081
O          -1.28334977285431   -0.78816005178490   -1.15845140276813
H          -0.24945561508073   -0.86749482362968   -0.98126166417012
H          -1.68483208693704   -1.11533489284729   -0.27545333969254
H          -1.44547462580619    0.26519202907010   -1.18735383096558
