    19
        -40.91892672
S           0.55774814434144   -0.73757838830650   -1.09685002646291
O           1.37747439692045   -1.78036715176140   -0.51834570255531
O          -0.84836696386412   -0.83881767847488   -0.79428009229752
O           1.07561385494359    0.60138688199832   -0.75810124834405
O           0.69677216771697   -0.85581227105765   -2.66755624774424
H           1.61765748542468   -1.05310301198065   -2.81174104644453
O          -1.42574774858006    1.71750925710064   -1.44546526567644
H          -0.52392066496102    2.04950489712141   -1.48102868538451
H          -1.33624750703369    0.75229732772830   -1.51574464360113
O           0.96417801837942   -1.49177403028341    2.03022393848368
H           1.09708203400247   -1.73016064567403    1.07704062160022
H           1.76477228971731   -1.75591771153612    2.48888527355278
O          -2.03700866837131    0.86290574496665    1.01078050873107
H          -2.04679251128655    1.44271503548382    0.21564750415086
H          -2.02178982866899   -0.03068845957878    0.63276419047039
O           0.39182955452657    0.94667969931948    1.60111724844907
H          -0.66650797210546    0.97693255784342    1.47389114313158
H           0.61188963741958    0.00848126240120    1.94592734462547
H           0.75136428148370    0.91580668463198    0.61283516533359
