    19
        -40.92136399
S           0.53424929827222    0.12080124045154   -1.27352483286001
O          -0.28844160415902    0.44984493515502   -2.41099191915653
O           0.56057249155257    1.13557295803482   -0.24431836960089
O           0.19911613507186   -1.19583581595131   -0.70275971519558
O           2.02384833048855   -0.02757008653657   -1.80301858490840
H           1.92289406122821   -0.30907099663851   -2.70794350123455
O          -2.24448451976338    1.16388402197521   -0.79593651116268
H          -1.90067537309921    1.99725251825122   -0.46222127906351
H          -1.64551783842638    0.91500073738069   -1.53610331735405
O           1.86704793026098   -1.22843327501532    1.40012316102132
H           2.67926957890207   -0.81008499704894    1.10965363560084
H           1.33548623205201   -1.37334451625370    0.59468099459702
O          -0.03042748997393    0.45496440795954    2.21525103603835
H           0.25002354902319    0.97225852790730    1.42568491129679
H           0.67858384194003   -0.22172943464801    2.28812756739910
O          -1.72160152185818   -0.72311720822353    0.84087396289983
H          -1.01300820937225   -1.11683442434925    0.21065897156813
H          -1.08712475446257   -0.22900176233042    1.58470174733040
H          -2.11981013767415    0.02544316987269    0.26706204279783
