    19
        -40.91892669
S          -0.24435783371891   -0.54440651278250   -1.30425347292939
O          -1.09326175592501   -0.93210752690554   -0.16198105042760
O          -0.85956010461283    0.50889810450510   -2.08271405834156
O           1.10409501608477   -0.26776370300070   -0.87501297371395
O          -0.17540918130600   -1.82527979532328   -2.22912712647764
H          -1.00418271027143   -1.82516077285842   -2.69905766795418
O          -0.81621566057614    2.53183184992962   -0.45288922367096
H          -1.58173884133002    3.07832620809747   -0.64363642386509
H          -0.78137546478858    1.84228764249624   -1.16442229579120
O           1.65682222753347    0.37048410068100    1.74127435494719
H           1.88898038720554    0.50545971161095    0.80869638172932
H           1.62104946096035   -0.60945997343376    1.82343273551960
O           1.14059498225951   -2.15920114189253    1.05260227511555
H           0.19585527189813   -2.33711720515392    1.07662288242710
H           1.28709962786099   -1.71977577713739    0.19827056820295
O          -0.77588039838109    0.89241574021939    1.48829323128382
H          -1.00571076386145    0.07110510782844    0.87231258528400
H           0.25432541617256    0.74222801220298    1.71931476658040
H          -0.81112969520458    1.67723595091111    0.83227448206998
