    19
        -40.92079111
S          -1.16750217878192    0.31162689581993    0.86454224638496
O           0.10309990755556    0.20727012824996    1.58479421983812
O          -1.56808176967353    1.67752961196803    0.64567033085579
O          -1.15665488806812   -0.50879855388813   -0.33862421261967
O          -2.25478800571813   -0.35146108613961    1.80439015934795
H          -2.33339130258097    0.26934814072460    2.52197155239708
O           0.51351409264746    2.66284990149108   -0.65149386296748
H           0.22702065749765    3.45545641992740   -1.10926791942682
H          -0.24720922185346    2.37499406518399   -0.10176508047971
O           1.86387491905550   -0.93374711811141    0.27217174551548
H           1.37855593900283   -1.81626479884781    0.14534034394776
H           1.22361838331758   -0.42746845814925    0.93959174721408
O           0.14039713219818   -2.77986244059498   -0.14241299643127
H          -0.51344069526913   -2.04174315093585   -0.16850184699241
H           0.06746134555185   -3.23949015178810   -0.98129082363369
O           0.98368392589299    0.29465654550090   -1.71039090375753
H           0.07854925191390   -0.00140454454196   -1.48502358316410
H           0.98872411759282    1.24774149110838   -1.45841766008638
H           1.67256840980794   -0.40123291699264   -0.63128345596352
