    19
        -40.91898894
S           0.93193603018860    0.56909782022205   -0.13701109284451
O           0.06972043791451    0.71254682350918   -1.29148559906123
O           0.48289947230146    1.40209872454101    0.98111064690315
O           1.03274034616312   -0.83900727389124    0.27235834190332
O           2.36417138998113    1.05719668950568   -0.49202581423214
H           2.72694222266284    0.34147020604398   -1.05542302644801
O          -1.23866949534969   -1.50520871051092    1.33306564930752
H          -1.02942597405091   -1.96453589597647    2.14918186382782
H          -0.36748084005141   -1.33754189496189    0.88239408748210
O           2.89958797532438   -1.30587973052100   -1.52728091735728
H           3.63988102814914   -1.78200042403839   -1.14353002624955
H           2.14248254894808   -1.42851196776051   -0.92164592008237
O          -2.44748860304686    1.21469755550398   -1.02627988685995
H          -2.89078872300070    0.47636129626867   -1.45038530871365
H          -1.48339091286140    1.12262855470263   -1.25648143888838
O          -1.89631590697855    0.94748927662873    1.41772664489383
H          -2.27722795091726    1.12426244502670    0.46691473224019
H          -1.78284315818893   -0.06933464987342    1.48135763384410
H          -0.87672987712057    1.26417115543370    1.31743941029276
