    19
        -40.92120515
S          -0.93696304490859   -0.59374646863515    0.81723681632125
O          -0.35085138356461   -1.39842002360538   -0.25482287177788
O          -0.59381176813913   -1.05938058839609    2.13270837626656
O          -0.71908708600542    0.82505696308559    0.58499802774285
O          -2.51586633705226   -0.78259037359082    0.66323252401125
H          -2.72115540465163   -1.51434940566716    1.23735369561921
O           0.78385054297402   -0.03982853869754   -1.98283601217353
H          -0.03945154003458    0.50997045553929   -2.20325043588295
H           0.37740557931611   -0.74388648551732   -1.31380725058165
O          -1.47173451610438    1.17293591274541   -1.89945001866312
H          -2.26323817611229    0.65115909996767   -2.04437639242329
H          -1.33134619176788    1.19229054114593   -0.92476875896887
O           1.99905529133364   -0.65253413590746    1.64544661477789
H           2.47056006631863   -0.69896323091156    2.47986251703668
H           1.06802538610446   -0.86997920291133    1.84462088892648
O           1.80778692587724    1.30668994055921   -0.14836919627441
H           1.35553805551988    0.56932249330095   -1.31715327530717
H           0.92554866714557    1.50298465966050    0.22003485215562
H           2.15573492376852    0.62326838783934    0.46333989919692
