    19
        -40.91892635
S           1.09231120924764   -0.91101745031968   -0.18425950384867
O           0.74933692487869   -0.41838980459692    1.16299389709155
O           0.50587305599087   -2.21015480871900   -0.43420831780841
O           0.80261185804643    0.08396449859994   -1.18690721813043
O           2.66164576789681   -1.10529469514370   -0.17309471935350
H           2.79550440711573   -1.93412958070789    0.27718714227649
O           1.45750662457563    2.19596587464409    0.36550456263707
H           1.48495142246514    1.73315560131471    1.20802566780132
H           1.52844168092921    1.49455126907203   -0.30336522390556
O          -2.03962857789327   -1.69532362852312   -0.49679324981248
H          -2.50303303593285   -2.46872131212319   -0.16786777610192
H          -1.08754792580112   -1.95747942889971   -0.58586111545779
O          -0.99286532583718    2.10598593437129   -0.69762692789350
H          -0.20081971554982    2.49425802018161   -0.26191006489972
H          -0.61001256028016    1.50197149181363   -1.35384923109762
O          -1.60453287621168    0.33853834012523    0.96263326386700
H          -1.46868091645549    1.15373545530654    0.28877168675080
H          -1.95169806660492   -0.44305198874354    0.39985176369685
H          -0.61936395057070    0.04143620234961    1.18077534418604
