    19
        -40.91907727
S          -0.08409809912287   -0.43995905426292    1.60637230343435
O          -0.98183685136838    0.42017894574981    2.34113118063382
O          -0.73187296561338   -1.27714154433208    0.62292690647750
O           1.02497496471855    0.32378139456316    0.99630197591662
O           0.60376074236785   -1.40446694815315    2.65641484468767
H           0.69911816445463   -0.88342151485367    3.44949408733788
O          -2.26349883667325    0.95599370046371    0.11680451512323
H          -2.28211027696224    0.02521426434141   -0.14138258324936
H          -2.00543431785263    0.92606009412551    1.06519441345059
O           1.36690616323146   -1.57263446449880   -0.94930342723642
H           0.52846845932765   -1.75735729384169   -0.48164483307104
H           1.84016826902649   -1.00795577143722   -0.32455514737173
O           0.53532856272720    0.18589829806246   -2.68486684767937
H           1.26147220591152    0.42275562976882   -3.26466434743365
H           0.84787661173784   -0.58701966907314   -2.13032498650767
O          -0.02406255868290    1.72628823604978   -0.76094414704795
H          -1.01437887426854    1.53979382351840   -0.50213832056680
H           0.50500287488224    1.22888450250375    0.00520491818859
H           0.17421574214610    1.17510739131694   -1.62002051508348
