    19
        -40.92267749
S          -0.78782577052410    0.03997406154841    0.71553341036497
O           0.43151801635319    0.13475552824403    1.48543414738878
O          -1.20536723377132    1.31578375440139    0.15301622607407
O          -0.64293381776050   -0.96254469965014   -0.36922851241217
O          -1.91043709855686   -0.49210895334073    1.64929374614476
H          -2.70109297104363   -0.49312187967745    1.06519221470990
O           1.15516155988009    1.93373638083846   -0.80314354480646
H           1.65613500699630    2.13346525276750   -0.00745682805420
H           0.21577223579348    1.86104232737787   -0.50882873197783
O           2.64504354977306   -1.06149022870320    0.79536025651131
H           2.63093706201011   -1.96317527395378    1.12209799849090
H           1.88299656605900   -0.59828519213494    1.22304006821676
O          -3.36116131755339   -0.15734526465942   -0.51052108720366
H          -2.85700275178375   -0.78175223252040   -1.04229284579866
H          -2.84481102201070    0.66448294826072   -0.51647636454227
O           1.52882408420594   -0.50256502872133   -1.41714965271679
H           1.48372901575603    0.52355217269527   -1.32735376610475
H           2.13627817949554   -0.80447611511828   -0.64859900556067
H           0.54423670669634   -0.78992756766552   -1.05791773872944
