    19
        -40.92136405
S          -1.18041172222439    0.63595153554616    0.35349815023840
O          -1.20809698263755    2.02951226211368    0.72251099593522
O          -0.72386728688261    0.38636880823977   -0.99518185720027
O          -0.43003400743891   -0.18396663297589    1.32111845317503
O          -2.67390219999809    0.10250826851519    0.43319065548817
H          -3.08196283465971    0.64910339575418    1.09875785022170
O          -0.55994874996937   -2.57498169572320    0.10833453784270
H          -1.43372830737738   -2.63767367994276   -0.28106838358067
H          -0.57916787166917   -1.79158894460064    0.68987313762895
O           1.22364150217144    2.33949112978589   -0.24446501698948
H           0.34098072543906    2.39976173365096    0.18660252704204
H           1.04209755816148    2.30639628719703   -1.18785150508890
O           1.24969956442274   -1.29554995070766   -1.37063313152503
H           0.79568372755360   -2.05512929502400   -0.94308071752763
H           0.50852870399353   -0.66742296331730   -1.53043669869301
O           1.95922057200659    0.04262686131527    0.58998998214155
H           1.06742938570746   -0.10142237552391    1.07854804789310
H           1.81885947041241   -0.59183655414615   -0.29146825758304
H           1.86497875292432    1.00785179981179    0.26176123055731
