    19
        -40.91689944
S          -1.69550321860669   -0.53938768088632   -0.44884504616132
O          -1.17652513611311   -0.71651251374860    0.92040604694889
O          -0.93324865809849    0.52187972839481   -1.11649768385551
O          -1.75642994405636   -1.74788735305884   -1.20717504992195
O          -3.16237981754554    0.01094801147975   -0.25267767800624
H          -3.08778091998567    0.66797630036212    0.43495306836065
O           0.85258278896120   -1.30915400802517   -1.78825899409860
H           0.34719632209479   -0.47109947022749   -1.77239280601849
H           0.16417884669466   -1.97000645982242   -1.94948260499966
O           0.24411733769517    2.30003379269642    0.37805104911164
H          -0.25036019906192    1.64090833349687   -0.16860371339974
H           0.53178800361835    2.98072651759627   -0.23359701955636
O           2.14869091810476    0.83067537470609    1.43183138301017
H           1.46396772608745    1.44007096496127    1.04466062635291
H           2.10669147636128    0.94910403248776    2.38277055128265
O           1.17634690573615   -1.40668464475157    0.72644924401725
H           1.21512034693294   -1.44917945168817   -0.30420235506950
H           1.67048096962895   -0.54640206992781    1.01700492122506
H           0.14106625154949   -1.18600941405239    0.90560608078239
