    19
        -40.92343641
S          -0.76013376040085    0.27176012648452    1.48130886808941
O          -0.73861887266539   -1.17544751117520    1.49912234636050
O           0.53153769105293    0.84179120978288    1.86694987752690
O          -1.22681827971410    0.80766335791019    0.21233557563622
O          -1.79606428804338    0.74685092803994    2.56901107976209
H          -1.44225640750292    0.37573832750362    3.37125955528090
O           0.53783466668886    1.65727680681617   -1.60080062229211
H          -0.18524785947447    1.62320286177291   -0.94047935226277
H           0.25235166953942    1.07645390545285   -2.31469470434224
O          -1.00223719394395   -0.82259202175638   -1.87026027426517
H          -1.22877156346678   -0.25691028187300   -1.09917780716368
H          -1.76768102863933   -1.37602999497133   -2.03107761260068
O           0.99119231148285   -1.80310542216954   -0.36022543017298
H           0.40145201137551   -1.77346193288528    0.43057987296668
H           0.38285167420359   -1.63419703971530   -1.10996660258591
O           2.08989495291452    0.40693249032595   -0.01766057846716
H           1.63017802404045    0.98089014896844   -0.73566479296331
H           1.56423574981870    0.64832836093741    0.85332012350896
H           1.76630049272556   -0.59514431945604   -0.20387950201233
