    19
        -40.91908979
S           0.47742980544113   -0.77892635921675   -0.78727438241061
O           1.08316721832637   -0.02444065477683    0.35048704490489
O          -0.69219158185499   -1.49557551258350   -0.31626586641102
O           0.19882196355420    0.10476064073778   -1.89250717204992
O           1.55251058921165   -1.80167620187074   -1.24523567105626
H           1.83813040061522   -2.23025312094969   -0.41169204635621
O           2.25614364202975   -2.20707389525349    1.26596311290728
H           1.84366094386494   -1.32347825088755    1.22105012466063
H           3.18898911067588   -2.06768428856966    1.44567143786961
O          -2.39917876150920    0.04488223249291    0.81803972354411
H          -2.70067212066329   -0.41457924322661    1.60460550992351
H          -1.83434371521162   -0.61306420118717    0.31772445528527
O          -0.68601222771273    2.50159256309414   -1.46717813661670
H          -1.56656378838780    2.51065786906545   -1.84962089193223
H          -0.26827169300197    1.65184589256982   -1.76660762588475
O          -0.53832498377164    1.74470831049197    0.93513517987851
H          -1.37741740219800    1.14135691488971    0.99861296259817
H           0.24087781430616    1.03732306860866    0.76314230459382
H          -0.61675524371760    2.21962423657880    0.01594994654098
