    19
        -40.92079096
S           0.38893624424308   -1.35511953512986    0.46838842468265
O           0.29288582289013   -1.22583886059950   -0.98704300001724
O           1.75016382611245   -1.32248932801318    0.93729542707353
O          -0.49729292517421   -0.41316670270733    1.13780579716031
O          -0.19369495376011   -2.78511387384775    0.81607359301532
H           0.46310303226606   -3.38115358520729    0.46976770140889
O          -2.78571028348765    0.02792698969275   -0.06551979691917
H          -2.03386115551898   -0.27853798558003    0.49463189842559
H          -3.29239735376029    0.64244028047333    0.46923632456975
O           2.60829337951987    0.98654731061673   -0.02049729976609
H           3.38221412431129    1.24553171682373    0.48340951019623
H           2.37113898894647    0.08496002666308    0.28715697555027
O           0.17462227196140    1.98009996141457    0.17486269193821
H           1.13980975880494    1.83337880954944    0.03689864091940
H          -0.08578021042397    1.26089400424958    0.78540098311319
O          -0.96271903528094    0.78638303537206   -1.69437749613615
H          -0.40418016904767   -0.09517822605065   -1.54484385908286
H          -1.83857524589275    0.55966999879704   -1.23445847421529
H          -0.47695614667935    1.44876597349709   -1.01418805192404
