    19
        -40.92007378
S           0.26007515889724   -0.96588817818368   -0.97269435854305
O           1.06423890561879   -2.04019619169671   -0.43479472644252
O          -1.02443519161600   -0.84466001983602   -0.25430606539099
O           0.92446649561884    0.30779560785297   -1.06156001310140
O          -0.13417107018088   -1.38370417212087   -2.45049769348301
H          -0.21932388371275   -2.33120975117374   -2.40231888634581
O           1.70434293996810   -1.00488667396074    1.87052617017867
H           1.58447244436544   -1.41563963081601    0.97849308564010
H           1.86538435715889   -1.72695951186782    2.48198406075857
O           0.07547859608044    2.28695869707364    0.44109122790819
H          -0.74988658171587    2.33446579936166   -0.09546399873241
H           0.66722927257718    1.75032000350426   -0.13248530952422
O          -1.81406026320984    1.52268514364134   -1.26628299126285
H          -1.43589839553174    1.55381378498458   -2.14724773971001
H          -1.68771432165111    0.60695570432597   -0.95490536512051
O          -0.45439179240947    0.34941513542287    1.87967665598073
H           0.43808673651639   -0.11407263230167    2.04704148349178
H          -0.22133868422948    1.30594916953001    1.37746123193689
H          -0.84255472258913   -0.19114226374422    1.09628324173131
