    19
        -40.91317586
S          -1.37204750001046   -0.50769606087530   -1.39857546746404
O          -0.60457496067632   -1.51863238295562   -2.07247623074838
O          -2.02846115319226   -1.02405122603506   -0.18195125749178
O          -0.60749537704117    0.69437806304888   -1.09128145986286
O          -2.54239157742224   -0.05541024685482   -2.35893602908408
H          -2.89898855395000   -0.86804099887680   -2.70779483899114
O           1.40551377161649   -0.80584580726099   -0.33742773951832
H           1.33708080260636   -1.55490036360875   -0.94007195782876
H           0.80245977056496   -0.14134942217826   -0.74470503780834
O          -0.23049980492303    1.69140693446663    1.36994042558994
H          -0.49295085992268    1.63424981124644    0.42901880348964
H           0.73689321793425    1.83497727064999    1.36216609699548
O           2.45107069267183    1.34764987329722    1.14505745629937
H           2.38822580456524    0.59926059250936    0.53538253907121
H           3.10824739962018    1.12233032313601    1.80491265350621
O          -0.35847373577792   -0.78920125369937    1.59321074517718
H           0.44376549829655   -0.97839054056761    1.02383366680528
H          -0.35493379388496    0.27942448082928    1.67330769952022
H          -1.18243963108625   -0.96015905627407    0.89638993234326
