    19
        -40.92136398
S           1.14531467867294    0.35261416764715    0.69748153456864
O           2.44485452331692    0.33979592056322    0.07291201850054
O           0.25567715030374    1.37340974517169    0.11580449460594
O           0.49171766928042   -0.93608042316741    0.73810413319533
O           1.35651091314033    0.80236467448394    2.20542366666669
H           2.13082168580118    1.35733110185567    2.17766778895924
O           1.46846062874806   -1.04476163891743   -1.94526576632603
H           1.98904238530483   -0.51208291516413   -1.30191569266464
H           1.35646871929614   -1.90401995371233   -1.52904330995646
O          -1.93062603324864   -1.15577016958114   -0.23847256028806
H          -1.07629276831013   -1.35873290708341    0.20653676666469
H          -2.32317347826737   -0.47754362974529    0.35441034989262
O          -1.99495919317042    0.87129158502211    1.49073394201747
H          -1.72621832330406    0.65111364891435    2.38431953520722
H          -1.19893027318601    1.22101927662171    1.04783832040457
O          -0.73252593136466    0.24504988530033   -1.89474133923424
H          -1.37898069895261   -0.40308324492451   -1.29585038322492
H          -0.37852823105531    0.88695927495870   -1.17504227933085
H           0.10136657699849   -0.30887435823981   -2.11090121965744
