    19
        -40.91892665
S           0.39944993964431    0.05580169920175    1.37680715250284
O          -0.80917110037592   -0.63346285981951    0.99809254794281
O           1.56486917413591   -0.79269385290086    1.50383333930166
O           0.66109422783580    1.19524906587300    0.47755297883004
O           0.13466993406626    0.69563171217945    2.79847152713855
H           1.00297091530833    0.90089451739378    3.13274338898551
O          -1.83400402492142   -0.40856814481408   -1.54508986336670
H          -2.19215994500054    0.42085689368370   -1.15488661610874
H          -1.71251122090670   -0.98217482008135   -0.77193383322209
O           1.79524627374375   -1.81258917944920   -0.87444830319135
H           2.72826883548807   -1.96635154372724   -1.03840437557979
H           1.71935231844186   -1.54684849590027    0.07776157164717
O          -2.12272184030015    1.58833662811198    0.20572839690605
H          -1.36800594595734    2.18375228390979    0.17897721370746
H          -1.83092169963290    0.84509864067385    0.76000135864009
O           0.57453065314514    0.21493743482153   -1.79962996647596
H           1.09236408465452   -0.64457492246490   -1.59759496373207
H          -0.45568845715485   -0.05841886911605   -1.83339192917718
H           0.65236788778681    0.74512381240994   -0.89458962475405
