    19
        -40.92453841
S           1.49056025032340   -0.13890985102772   -0.28513650155502
O           1.30800948947682   -0.34544409137657    1.14689112080298
O           0.79690361490648   -1.17003055684598   -1.04946240070345
O           1.12993944238597    1.19952993558445   -0.70323584711484
O           3.03262606261635   -0.30108315791036   -0.58595283069103
H           3.24560947893128   -1.18761201160629   -0.30938869222914
O          -1.09189950741936    0.63900255234483   -1.92507934600253
H          -0.23640500930544    1.01724079566341   -1.60479713547844
H          -0.84728442691946   -0.24189550402058   -2.23279073251233
O          -2.11894140189267    0.32698832113735    0.35544327075723
H          -1.83551477760043    0.49545116213880   -0.63808460202651
H          -1.49295279153436    0.94481246864635    0.92321353289038
O          -0.33344063416662    1.62629515135920    1.57093038194069
H           0.03624668074254    2.25393700417665    0.93913539746707
H           0.33942962220677    0.90088884136336    1.59829166539028
O          -0.94438841031536   -1.86866298386665    0.73858093788922
H          -1.77814029167206   -0.63977319239846    0.56116887998124
H          -0.30946900335235   -1.77582299500616   -0.01673464691170
H          -0.39088839739662   -1.73491187836051    1.51700752811102
