    19
        -40.92453799
S          -0.21921537244617   -0.55121965930477    1.40371343464424
O          -0.44774510754285    0.88890054356007    1.45440972005068
O          -1.19285603127914   -1.19952733676418    0.53293109764524
O           1.14568069948623   -0.88530775259080    1.05505792788729
O          -0.45651489038956   -1.10620404159636    2.86331607081354
H          -1.35119181387886   -0.85906279240892    3.07850993349016
O           0.44189317371773    0.73651944409450   -1.99637001104952
H           0.47483090493259   -0.30641683334195   -1.91216311645875
H           1.10805113658037    1.08719184498482   -1.26913893912443
O           1.84214873101599    1.38195684117795   -0.00238054666019
H           1.28716981986547    1.95139002619471    0.54370425766771
H           1.78991465609405    0.50508288970607    0.45135100022156
O           0.41079469490859   -1.72309161511391   -1.44590569782700
H           1.20772842374012   -1.90657681376077   -0.93503656151348
H          -0.30037911007773   -1.67904362121788   -0.75887787813637
O          -1.72690003980704    1.15346712932991   -0.78428807772254
H          -0.50222452030822    0.99274692091908   -1.62706588149667
H          -2.18477206730835    0.30469526868653   -0.77196049620478
H          -1.32641330730715    1.21449954744995    0.12019375376325
