    19
        -40.92453820
S           0.80749152474038   -0.79793845304331    1.01645089404591
O          -0.26289703188556   -0.11850863598650    1.73845950258777
O           0.26107488444135   -1.75323211806902    0.05968915766702
O           1.74011966924130    0.12641320765881    0.40648836294625
O           1.62964353839500   -1.62430451175248    2.08224099040065
H           0.99586401622708   -2.21485678501964    2.47889238408973
O          -1.03543858014397    1.20765840320502   -1.48069686910470
H          -0.29363809277973    0.58762766131503   -1.88220050775365
H          -0.54570076104173    1.77713228533603   -0.75144589826019
O           0.79171459294382   -0.41290253263290   -2.10447884146629
H           0.60099613021708   -1.07991199138091   -1.39846857610715
H           1.62523366089542   -0.01803217327733   -1.82327655636749
O           0.24678685449397    2.25073545158032    0.42206420860036
H          -0.24991135192116    2.04839556475832    1.22393387742137
H           0.97977903637764    1.58733200116592    0.43147742435916
O          -2.16989154406714   -0.46975398186785    0.01828931260523
H          -1.58308165613025   -0.31675947796911    0.80215145858410
H          -1.64415638468902    0.55641277779413   -0.93452832834287
H          -1.89398850528049   -1.33550668180327   -0.30504198591305
