    19
        -40.92217277
S          -0.44206012626555    0.20313198703284   -1.29227612035101
O           0.58583823591823   -0.72687343144317   -0.85890154155917
O          -1.58070877903818   -0.38274790329143   -1.93935150699193
O          -0.80437122104790    1.12556245186943   -0.20860746081848
O           0.28624544620771    1.12002359190437   -2.38218509404826
H          -0.39039512048934    1.31427910280330   -3.02409334911208
O           2.50298765570100    0.81647702366643    0.02237752965631
H           2.56324234901716    1.57531806415693   -0.56118615775823
H           1.94113641440087    0.15682960302424   -0.44571273913176
O          -2.26098505309627   -1.18578239387402    0.53721058556650
H          -2.11741512626677   -1.05681256298215   -0.41703829957828
H          -2.69508989580981   -0.38503504182774    0.84091687578460
O           0.13829026050373   -1.65035957007797    1.61809359939444
H          -0.82815502321062   -1.65288216454650    1.44022924269145
H           0.52476828097155   -1.71250927527381    0.72656241181330
O           0.63554745100130    0.79183496113709    1.77472250723063
H           1.52213885347805    0.87449422048138    1.28801836314590
H          -0.04416966739751    1.03381162538101    1.00359678286205
H           0.46315507542039   -0.25876028814018    1.87762436120613
