    19
        -40.91302041
S           0.24619844147805    1.02886643569271    1.69937319620387
O          -0.15905657708926    1.66760027657636    2.90394497420951
O           1.67240118656035    0.81592845286671    1.53705048770054
O          -0.50860109483089   -0.19339655711388    1.35908864813866
O          -0.17252259853451    2.02710862565298    0.49560810807344
H           0.10465980599047    2.85977904583318    0.86140674186089
O          -1.26173602943741   -1.29473844327423   -2.06640408416368
H          -1.89659511643061   -2.00072917820519   -2.20150420239073
H          -1.74018883208696   -0.58064862169028   -1.55986266589485
O           2.51615987690730   -0.27112649832042   -0.60964484211302
H           3.37816208624065   -0.64033061574815   -0.40649625204193
H           2.24652848137682    0.25673682301953    0.19974964847801
O          -2.33447468783019    0.46868632559683   -0.46005568666639
H          -2.07172794102362    1.37314360605903   -0.64991679247310
H          -1.81479098419486    0.22261068125965    0.33328867208180
O           0.49987154920922   -1.73921921058278   -0.29586222721183
H           0.08511131960313   -1.14986250490297    0.47849384349438
H          -0.16152511096297   -1.62356589831338   -1.08270031401338
H           1.37212623506194   -1.22684275441167   -0.53555725326755
