    19
        -40.91908982
S          -0.67764715275773   -0.56360523937347   -0.82391984787776
O          -0.97225337912170   -0.13745939953745    0.57690074335723
O          -0.16231157562470    0.56888367743128   -1.56922849422089
O           0.20642427192994   -1.70309873862669   -0.83351099615034
O          -2.03681598278674   -1.00070160822694   -1.43456364393015
H          -2.64051944543300   -0.26056458788507   -1.21586964762463
O          -3.25722920926080    0.96227416932086   -0.16098688728644
H          -2.43852387474320    0.76339041142117    0.33208919473863
H          -3.98874745622288    0.68052506585191    0.39333211707255
O           1.88104634479452    1.64049239909717   -0.45112256179895
H           1.14772012615904    1.23620945771095   -0.99976833172600
H           1.75394132401550    2.59009520006454   -0.50452714391498
O           2.14221774574819   -1.87503978920605    0.87859540064786
H           2.94258244770585   -1.84122254807781    0.34950163527135
H           1.39426299995059   -1.98041839315299    0.23382975946415
O           1.21523898129658    0.35320125432132    1.61410121139720
H           1.68654652251733   -0.55916937998149    1.46562224529364
H           1.58234531149809    0.97028480021396    0.86794257013728
H           0.22172200031577    0.15592323864621    1.28158266712205
