    19
        -40.91833234
S          -1.45198634525778    0.93098339418130    0.05321468276601
O          -0.94324336943194    0.57859021755168    1.38806801816629
O          -1.08256222646651    2.27186041511693   -0.32628233054889
O          -1.11481760691451   -0.08591514141204   -0.92322396865069
O          -3.03096596152880    0.90856180789356    0.17982733754808
H          -3.22546056295480    1.72124846790645    0.63678019123677
O          -0.49225536930935   -2.53605031043345   -0.35555657340785
H           0.02661181403574   -2.85757273516501   -1.09580135399373
H          -0.88026613155103   -1.66924195132389   -0.63979418076876
O           1.15044629030693    1.42919242556897   -1.43325421009979
H           0.70828635138168    0.83111184685873   -2.04257932238337
H           0.41290114175960    1.91584349545772   -1.00716338311436
O           2.50854424993777   -0.04061622732913    0.25416039189739
H           2.03018803814045    0.52141130801170   -0.41695674383000
H           3.02601107248443    0.56660678386050    0.78630849356721
O           0.67275438097875   -1.26478620994673    1.51185646256129
H           1.47840959467423   -0.82516398157462    1.04368097006194
H          -0.05727961941221   -0.47270402551169    1.54509428882992
H           0.26468424912897   -1.92335961968916    0.84162122014884
