    19
        -40.92453696
S           0.17601221796746   -1.33181015560918   -0.71937051301840
O           0.80740224072034   -0.31148695790457   -1.54805284590186
O           0.84553431310411   -1.43697009350900    0.57269672382174
O          -1.25267744114173   -1.13522721769829   -0.59130897766087
O           0.37293540715965   -2.71699761038018   -1.45234022069169
H           1.31663449511386   -2.84187290146132   -1.49291306090384
O          -1.06874685545609    1.48045474563588   -1.37835254685378
H          -0.31406817921375    0.88518362273269   -1.61490570600004
H          -1.82778926781253    0.88609582574726   -1.35824807876817
O          -1.31072387117533   -0.30353365133633    1.86804013333241
H          -1.48953007504080   -0.69655699975336    0.97866214635851
H          -0.55386140996236   -0.80813347689901    2.18903591913741
O          -0.38852979114894    1.88189748698184    1.01496514592445
H          -0.83628313729686    1.05956035877659    1.48228608283162
H          -0.73537698637569    1.85319992744571    0.02723472390722
O           1.91233513159730    0.92467735896777    0.64436762835538
H           1.64305237276291   -0.02429816895736    0.73932780518705
H           2.08342200150157    1.01756064765183   -0.30027252165463
H           0.62025882470366    1.61825726957115    0.93914815260227
