    19
        -40.92453679
S           0.28688264722505   -1.01681160200647    1.09792210453902
O          -0.80741082588340   -1.54012214400579    0.28706256559217
O           1.50379705490496   -0.88897433306478    0.30468684551788
O          -0.06305122933007    0.21274013189047    1.77754687134865
O           0.57407357486865   -2.08512850918187    2.22533278468301
H           0.76447554689296   -2.89237519688773    1.75635876744189
O           1.52219060905303    1.70410948496616    0.11658149793928
H           1.16239789522053    1.90968743719405    0.98720773931478
H           1.71017691080203    0.73353105511557    0.16632339858614
O          -2.09599180690638    0.89821528127054    0.31435545434108
H          -1.43085023903806    0.74616375250223    1.02971400854868
H          -2.39442523826001    0.00829548665603    0.09213194124488
O          -0.43263490646191    1.54436161034026   -1.46620330101055
H           0.40338542236641    1.74862594162789   -0.86951035976975
H          -1.21497759386909    1.38537449621623   -0.78953818991673
O           0.08335576439742   -0.85198298941663   -2.04815902146509
H           1.02350014618003   -0.96682401419567   -1.86615187870704
H          -0.35695237328964   -1.24580591626903   -1.25249870702846
H          -0.23794136886524    0.59692002723851   -1.86316253120632
