    19
        -40.92343549
S           0.95438906278893   -0.61833496590490   -1.24599278479955
O           1.90752648105481    0.30300549497831   -0.66535924003606
O           0.86889147418398   -1.86655789498165   -0.48610590721640
O          -0.35495949700205   -0.01608498541149   -1.44123693500200
O           1.47764300377049   -1.01151207614016   -2.67900596671930
H           2.30389687969913   -1.44455517203222   -2.48867211020176
O          -2.29695419796489   -0.45056527453512    0.33631220798406
H          -1.76749590967682   -0.42894449774386   -0.48796750881289
H          -2.45947080864603    0.47401487869781    0.55364113306303
O          -0.87621012444664    2.10036473805336    0.07458295311162
H          -0.63142577503603    2.94186776492824   -0.31268931884842
H          -0.65669439463066    1.41538986567643   -0.59505240794493
O           0.89382604444078    0.87099738298654    1.67810443424951
H           0.21880261116606    1.49340271846024    1.33510602933138
H           1.47924947834424    0.70922844054890    0.90021695148265
O          -0.29178389909687   -1.32024886069738    1.64099762829646
H          -1.20715156586194   -1.05492338122950    1.25639624161517
H           0.21668868461264   -1.69799560235591    0.80913145087665
H           0.22123245229432   -0.39854855328805    1.81759313958103
