    19
        -40.91893401
S          -0.95807885822706    1.41357799314621   -0.30883693054183
O          -1.94503348811534    1.02540790517962   -1.28423858351152
O          -1.11822612266650    0.68724340748329    0.96005937043655
O           0.41571121154924    1.36207341710383   -0.76870794763483
O          -1.24290678704349    2.93659226006583    0.03738068537905
H          -2.18982304859293    3.00122579663511   -0.04202116958930
O           0.61557435689021   -0.86326275861571    1.76097314154978
H          -0.15679800064495   -0.17108627507517    1.49572097073574
H           0.40247792160071   -1.68203032831843    1.16332283814020
O          -0.05921862833140   -2.67042925947469    0.12561887969174
H          -0.16964953683870   -2.12480839263342   -0.69899257730862
H          -0.92032449059271   -3.05008262398049    0.31118803737138
O          -0.41450104305009   -1.03649743680600   -1.89529716341420
H           0.37161949344641   -0.50213947731572   -2.04290195884813
H          -1.12841122423367   -0.37988925345468   -1.76423315045854
O           2.43431030383452    0.45053952171582    0.57455624852805
H           2.85502366144744    1.18522616899435    1.02492598491548
H           1.45970356874832   -0.42781747672513    1.37499088855057
H           1.74855072081659    0.84615679208259   -0.02350754398745
