    19
        -40.91893412
S           1.51435269976989   -0.74866121854473    0.40470848900253
O           0.36188032014409   -1.58626792198791    0.03849060374695
O           2.38650023053162   -0.50654539798656   -0.71640070637324
O           1.08919581711973    0.43737671974076    1.12173186892368
O           2.34884417203553   -1.60966606400322    1.44512694100725
H           2.91340149986566   -2.13385018342021    0.88509543660597
O          -1.93008488036569   -0.69669362449638    0.11703085880241
H          -1.93391488284019   -0.15427557109294   -0.76552930132021
H          -0.96538939811671   -1.16145643180775    0.10367774902798
O           0.77838210394974    1.45621845108760   -1.44316052938476
H           1.44478172117082    0.74343967593656   -1.36721206291249
H           0.79393440710135    1.88467090508166   -0.58201480241277
O          -1.63556371621021    0.61245349244050   -2.02641366076848
H          -0.74040461499544    1.01333757645627   -1.85977224051894
H          -1.53780031412209    0.05506108869830   -2.80094311006809
O          -1.31024196608675    0.92647907251393    1.96780335270423
H          -1.84984733831341   -0.01766947508745    0.88050899599213
H          -1.37317425794504    0.64562680000364    2.88253181109384
H          -0.35485161269522    0.84042212646586    1.71474031684851
