    19
        -40.91966059
S           1.19775204279681    0.93843283060948   -0.78520176250813
O           1.37330733600421   -0.32722639234653   -1.51418781469777
O          -0.00756610743931    1.62351940933869   -1.22564294836843
O           1.25285472428582    0.74411963434535    0.64257107194745
O           2.41970121538523    1.84421734459592   -1.19025624798389
H           2.31267312807171    1.93834214951112   -2.13182785180414
O           0.46687080942809   -1.56180445722086    1.84897415505073
H           1.18524134258399   -0.93749174231188    1.65335901018252
H          -0.24947107702879   -0.96891730924992    2.18314519887493
O          -1.12745977630252    0.53660776100331    2.02330480953865
H          -1.76120632076220    0.50769222369703    1.29737418126348
H          -0.32759418850796    0.94853900964830    1.65758125044451
O          -1.97362835952174    0.08268244655550   -0.65941240432286
H          -2.64297338425771    0.14566278388354   -1.34337754871353
H          -1.26802644370258    0.75339343295187   -0.89320511225295
O          -0.28124308085930   -1.85904096337864   -0.51208274986380
H           0.48181607730640   -1.30661126219134   -1.00601022947452
H           0.02588611280820   -1.86364412651805    0.51849811552799
H          -1.07693405029152   -1.23847275292034   -0.56360314283858
