    19
        -40.91898885
S           0.55143796970770    0.18617118895675   -0.93110662909774
O          -0.34691162559952   -0.94001596904162   -1.07827222610325
O          -0.12990497381380    1.32311243730177   -0.29596751436198
O           1.75770123720261   -0.17757515127936   -0.18392073454670
O           1.03548484768185    0.65342985716816   -2.33214475370629
H           0.25859819930047    1.11713480672979   -2.71043594161916
O          -0.49531418255412    0.70500384433075    2.19684746294824
H          -0.44561964931911    0.97995314919724    1.24184451249176
H          -0.21944479232407    1.46991363315902    2.70634331835042
O          -1.15253857730179    2.09645485773030   -2.59762974469746
H          -1.03768705249763    1.93297213097503   -1.64100721888185
H          -1.02277820843429    3.03780938313066   -2.73452166974887
O          -0.48311908929594   -2.79313903047290    0.71231064313876
H          -1.39789651115359   -2.78711627712188    1.00308032897270
H          -0.44688090929937   -2.20054769025769   -0.08665083254134
O           1.09914176126935   -1.25488289436940    1.92854055965413
H           0.46099485358305   -0.50530894174390    2.21462712510326
H           0.49051951275710   -2.00775979229291    1.55058531942184
H           1.52421719010110   -0.83560952245379    1.03747798512508
