    19
        -40.91213648
S          -0.08041500411857    1.49698780696955    0.48914623221111
O           1.27650148505941    1.33964995816087    0.02310030602970
O          -1.08666979102331    1.49872966445453   -0.55229417543790
O          -0.41897043459572    0.52306845539443    1.54173083123796
O          -0.14938848855099    2.91246731222705    1.18877198172832
H          -1.08042329613028    3.06117851782802    1.32522957368388
O           0.61536120915402   -0.60318122593890   -1.78740823815473
H           0.93049565268790    0.22582062297028   -1.40511855484454
H           0.01961724565681   -0.37238118662300   -2.50135225780630
O           2.28199373225771   -1.08651548151191    0.57627041039668
H           2.59112053880141   -1.06584206147523    1.48439187815947
H           2.09368159891463   -0.15840376020849    0.32444758754105
O          -1.99077876384410   -0.93078766482196   -1.02963951671780
H          -1.71157646014194    0.01172401292960   -0.94870882765789
H          -2.84596089204801   -1.00291129522075   -0.60188664321161
O          -0.18323760199778   -1.74403699658053    0.60755302314482
H           0.81318513306026   -1.67978179689943    0.38375039906922
H          -0.33409252933704   -0.81917607219496    1.11715076619569
H          -0.74044332376475   -1.60660879944359   -0.23513476553286
