    19
        -40.92136405
S          -0.61435650117880    1.20914253649541    0.28921279436312
O           0.01370444382259    0.39492044360158    1.34481816239767
O           0.06274968000827    2.46686060236803    0.09281470837276
O          -0.79457262442640    0.43513633865200   -0.91827281237611
O          -2.06726163409302    1.54214805968995    0.83637210576293
H          -1.95758861355522    2.36563364362551    1.30340071000133
O          -1.49428017923514   -1.82091074131858    1.18954843341239
H          -2.39129709620927   -1.52975110783685    1.01696463124166
H          -0.98930742127317   -1.01797444221663    1.41860779784210
O           0.05297131911880   -2.04412910244381   -0.96855625583508
H          -0.37013594857779   -1.19167183541373   -1.22060986373409
H          -0.49555271720907   -2.33673693413723   -0.20745530974654
O           1.91085752201664    1.25626288249379   -1.34293703752095
H           1.41957521847131    1.08355297014756   -2.15093537893278
H           1.33826536442177    1.85888001585311   -0.81601878569029
O           1.87448523458609   -0.80305278850051    0.16348712125628
H           1.19383921764532   -1.47775854344160   -0.36483713166223
H           2.07874938622795   -0.03980922799172   -0.48793595127773
H           1.22915535944634   -0.35074275962055    0.82233205212599
