    19
        -40.91893426
S          -1.01915955987687    0.21598623620247   -1.38821184876863
O          -1.38141689493961    0.85693807093131   -0.11473560092203
O          -0.30900868504710    1.11315312639599   -2.26409185515857
O          -0.37490635132115   -1.06297105997939   -1.16271207182022
O          -2.39808966810419   -0.11220294189145   -2.10280800746705
H          -2.59800598287863    0.69675435924169   -2.56408257303272
O           1.81227171900785    1.19651258223983    1.55975210560012
H           1.76766670605349    2.15466854811642    1.56791094451756
H           1.94691837138972    0.93424111688897    0.60937746610907
O          -0.41424791784134    0.08551846686881    2.01138748118023
H          -0.90629066691128    0.44316883232478    1.12992018676131
H           0.51984480782658    0.52868900033048    1.94740738963426
O           1.90853131665622    0.50560716971929   -0.96818186708091
H           1.79249169422340   -0.44416214422386   -1.06723035621367
H           1.19549844761561    0.89179858987894   -1.51625904178300
O          -0.16340276358495   -2.27668295736613    1.11640365586542
H          -0.20342073134928   -1.92254140958286    0.19050230344672
H          -0.28200547446568   -0.91159196339081    1.81446636403864
H          -0.89326837646169   -2.89288362268623    1.20118533508089
