    19
        -40.92136398
S           0.53952195886334    0.81535156969243    0.98277358928797
O           0.61839396503079   -0.62744451722310    0.94014126620293
O           1.80357718122801    1.48470465777597    0.80084808804016
O          -0.49424979626981    1.31104638422813    0.05687141560513
O           0.01290578686475    1.19897684027237    2.43078176748301
H           0.38882502596535    2.05906227943258    2.59578275992467
O          -0.93739179985296   -1.93128038118479   -0.71751175330731
H          -0.28428246804168   -1.72287028986562   -0.01099034281961
H          -1.77422757887223   -1.57640531071721   -0.34407649237666
O           2.32111245383146   -0.04650036595905   -1.28070027407787
H           2.28224408566180    0.62328079964704   -0.56073897482680
H           2.51560962064981   -0.87888782251117   -0.84094426371749
O          -2.52089064168748   -0.32661377680797    0.70393142202902
H          -2.47636854587159   -0.45293130918416    1.65324810439972
H          -1.90193085890586    0.39943043323895    0.49933468826907
O          -0.11375761804224   -0.00659841568629   -2.04334267381333
H          -0.51666630521619   -0.92995512232163   -1.61669866212986
H          -0.36528274237552    0.67196364766377   -1.31418629679375
H           0.90285828701689   -0.06432931048304   -1.93452336733389
