    19
        -40.91183955
S           0.24095483043984   -1.08263875409195   -0.26216342843180
O          -0.83215243825776   -1.25361210927243   -1.20883738701284
O           1.47846757507099   -0.62301311712261   -0.90726543033968
O          -0.08683584225430   -0.22271789559107    0.86089941748465
O           0.56350158935844   -2.50593801290364    0.34628288508161
H           0.48611760222915   -3.10586674563997   -0.39100204806634
O          -1.34519595709246    1.28358201242583   -1.49085445156756
H          -1.29355239214346    0.29705604874741   -1.51442431853293
H          -1.82643022119816    1.50048341913706   -0.68774867394466
O           1.07713526156352    2.09808687536111    1.20804338720511
H           1.87750280801348    1.98152273797017    1.72373442084233
H           0.58583425065000    1.24341765726533    1.25467420044685
O          -1.96921782815717   -1.97278795847256    1.85578402317924
H          -1.37753902295751   -1.26800032733395    1.56315261485047
H          -1.40835476122673   -2.73173903467821    2.02453951933769
O           1.12719144612366    1.78377508295025   -1.30823898848854
H           1.19813273497648    2.09893154740315   -0.33355304534199
H           1.39502595550582    0.75268901909996   -1.23855850844582
H           0.10941442954979    1.72676957448383   -1.49446418823747
