    19
        -40.91836647
S          -1.81763924727186   -0.35558326213778   -0.67667217739995
O          -1.74360351999570   -1.45760981977750    0.26472303982671
O          -1.85059404762107    0.93682740911467    0.02615675938881
O          -0.79283115131823   -0.39806440993005   -1.69407092191883
O          -3.20556112032872   -0.47509519078293   -1.41689935976487
H          -3.81740327043604   -0.56150509875794   -0.69227129942876
O           0.06552590369921    1.22495535093995    1.54338230994027
H           0.80921235568303    1.60048000991937    0.96639739288174
H          -0.80778907548666    1.18564610252214    0.92055522543644
O           1.66853778849467   -0.68742618942399   -1.01130109687004
H           2.12614522513076   -1.10339272689194   -1.74386286846979
H           0.72401198878129   -0.58044589297998   -1.31507511563838
O           2.05862810061231    1.76300947763326   -0.00061165519913
H           2.92167298573339    1.79035263530071    0.41675335774438
H           2.00212333413787    0.91446563253804   -0.49352939844361
O           0.55257973578540   -1.22927831036694    1.45298809886938
H           0.30434343163148    0.20202719158194    1.66096604570673
H          -0.33943800193223   -1.49060518627742    1.11028556782256
H           1.14207855462511   -1.27875774227549    0.68208611550861
