    19
        -40.92267752
S           0.69597949124554    0.36783994181761   -0.71782761875133
O           1.41762213244232    0.34318267190037    0.53409401409589
O           0.66347067308276   -0.92725034401099   -1.38105492478073
O          -0.68894675513249    0.86031105161342   -0.51184661150642
O           1.38640639982579    1.39782117436519   -1.65456522491180
H           0.86214014287137    1.32830464675572   -2.48317920686311
O          -0.04295685775963   -2.26734925176314    0.75760643598293
H           0.75782722334130   -2.24759363743172    1.28880066533651
H           0.22305491361851   -1.92433692782204   -0.12875800340008
O           0.27836398951956    0.77945790520255    2.84021636258835
H           0.86553491475163    0.65188024046556    2.05451674800649
H           0.24484015437802    1.72430082128589    3.00195082979489
O          -0.45649660924227    0.56466050949719   -3.32514532796001
H          -1.19548973176227    0.84933877387589   -2.77777226193562
H          -0.16518186970815   -0.28107428816021   -2.94851110897550
O          -1.53717233106124   -0.33555492351850    1.45690342681221
H          -1.28925975214319    0.23638183896817    0.56630217571945
H          -1.06756481239301   -1.23126089856963    1.25766665080842
H          -0.95217131586948    0.11094069557415    2.17060298994020
