    19
        -40.91966056
S          -0.59860676282747    1.32969847851340    0.89777017532392
O           0.81704798763047    1.40492954926420    1.22387378828303
O          -0.84692515996177    1.83201544877268   -0.46233639224301
O          -1.15828987038078    0.01507909809461    1.09227949338241
O          -1.35092196335230    2.31585337155971    1.86702761932536
H          -0.92750362403729    3.15083943268126    1.69291680744320
O          -1.42084933975391   -1.78822323567295   -0.92514451049102
H          -1.85294959522611   -1.23070346550274   -0.25691421414230
H          -0.72464379777655   -2.25363327182712   -0.40067653974423
O           0.51117691497192   -2.16736655058789    0.83514248485923
H           1.31541431218948   -1.74703834673771    0.50940680984251
H           0.00560543826613   -1.46279146389616    1.27237330438586
O           2.03252365549929   -0.12151776164688   -0.43504242129293
H           1.63612388766088    0.47529920410825    0.26432712946693
H           2.88065077657088    0.26128455509937   -0.66736187647777
O          -0.05211225894921    0.02924158879908   -1.94784599183429
H          -0.66615133011261   -0.79537697699986   -1.63251212152911
H          -0.44731159721629    0.86217930663727   -1.41738521525236
H           0.84772232671726   -0.10976897070745   -1.50989831929192
