    19
        -40.92267745
S           1.00048698921677   -0.32779502018523   -0.16129750648114
O           0.23177253893563   -0.45832974616572    1.10157033886912
O           0.24185125073338   -0.85292942338044   -1.27371325431586
O           1.40281009134746    1.05794029672623   -0.35123591189662
O           2.27255708293193   -1.20333350519904    0.01408788277830
H           2.74122814614053   -0.76430820560960    0.75827326453430
O          -0.96600883332923    1.88530351644316   -1.10820250838404
H          -1.05084841199710    1.49670479444601   -1.98334322218176
H          -0.02344389470430    1.74542999077289   -0.85088083971333
O           2.76053380367338    0.53534700098405    1.91704341582515
H           1.96855512339611    0.32268955624569    2.42135299361030
H           2.46512496227647    1.12946316611540    1.20877047326278
O          -2.25339915574142   -1.58871240417592   -1.07381802476128
H          -1.30711362813293   -1.41265997850372   -1.30138946038324
H          -2.29144548549616   -2.49365197429592   -0.75808072385691
O          -2.03708357341484    0.32360782897469    0.58445781186265
H          -1.75403888154010    1.07407588838297   -0.06359101653139
H          -2.33003185084189   -0.44768366636465   -0.02386426617150
H          -1.07150626344342   -0.02115813516060    0.94386054395740
