    19
        -40.92246925
S           0.04103472664899    1.06872774878908   -0.03214994310835
O           0.39819704062288    0.67429933652422   -1.36125164801152
O          -1.37825698933497    1.14683331997837    0.22470724662474
O           0.68141394565525    0.13964767422304    0.99595896473432
O           0.69658810291233    2.42966477127483    0.28834420320386
H           0.35150553437509    2.65425235135381    1.18874926195011
O          -0.61925996324628    2.31063443701939    2.52788664952392
H          -0.23436510866063    1.57545099149859    3.01318079484502
H          -1.28261332625077    1.92925787219982    1.92985597648727
O           1.67818548411661   -1.61304935381458   -1.96063225055995
H           2.62023544241644   -1.44637006029994   -2.02162963495313
H           1.24443310164266   -0.73981628731005   -1.91529743179843
O          -1.86395989828077   -1.25791267835295   -0.90312129919095
H          -1.64767494036455   -1.09567792641667   -1.82474864237161
H          -1.91687268941581   -0.38220315260754   -0.48350077006281
O           0.33276923012135   -2.18314935867298    0.25114084214021
H          -0.58004431778473   -2.07615337968468   -0.11151173189465
H           0.91761341021613   -2.21229476164766   -0.54293730830289
H           0.56107121460613   -0.92214152405407    0.73695673074825
