    19
        -40.92158923
S           1.04990912505869   -0.10416974735306   -1.03190091003182
O           1.84162119745809    1.05642363961984   -1.33702158067061
O           1.30524050067346   -0.61743759115033    0.32025213840096
O          -0.37968991302212    0.04614027303057   -1.25940306979641
O           1.50622711842316   -1.24823645860412   -2.02913873049925
H           2.43486301969066   -1.08423998488246   -2.16179911663608
O           1.16695136608843    2.18684060631307    0.97809110628563
H           1.47568233504440    1.94820782978975    0.08221734854900
H           1.69438515987279    1.65471254588760    1.57835430201097
O          -1.34540567912462    1.38251421760540    0.83798732899631
H          -1.21855501178061    1.10829906129394   -0.09173415048036
H          -0.52490616577660    1.89217553365146    1.03913318848278
O          -1.86725339365558   -1.95210866052703   -0.45337294488717
H          -2.77665558416514   -1.78536227729794   -0.70932706348502
H          -1.31110181879390   -1.30577121798622   -0.94907109555063
O          -0.78393989213829   -0.91492353007669    1.61778687853330
H          -1.31441521599128   -1.47630770525325    0.95836145058707
H           0.16810913302632   -0.87399653309945    1.16558514673714
H          -1.12106628089062    0.08723999903458    1.44499976345991
