    19
        -40.91793144
S           1.19657535822316   -1.22130738686269    0.40413630591274
O           1.19543164273440   -0.40537810965039   -0.79253778634337
O           2.13935593284843   -0.78214591903022    1.40692662569303
O          -0.16237274899031   -1.36029346893154    0.95242769642415
O           1.62525561619944   -2.67520846170624   -0.04637103860894
H           1.77378838082458   -3.14392553152654    0.77048585035749
O          -0.98430337828966   -0.34686154465813   -2.23057062679824
H          -0.16570403624944   -0.47087750559267   -1.69356425802842
H          -0.68656171255712   -0.07534405431455   -3.10089884554538
O          -2.31938193821940    1.30028462680501   -0.70051703018022
H          -3.20720695618566    0.94541946853257   -0.62171156029899
H          -1.83895085024715    0.70381021441473   -1.33780166256836
O           1.39817950775862    1.69691646842179    0.99159237680585
H           1.49604477988198    1.61115542070799    0.03580601496431
H           1.84606244521483    0.89362901491485    1.34107106628388
O          -0.97864921137221    0.91247039911298    1.42001489030360
H          -0.70404324446288   -0.11622603056458    1.29397172336086
H          -0.07147233298165    1.39136307638731    1.31822020754401
H          -1.55204725412746    1.14251932354010    0.58932004071680
