    19
        -40.92136405
S          -0.70623226001464   -0.54068299010947    1.06381757215543
O          -0.17109075923665   -1.61911742436742    1.85716601765156
O           0.07213331973188    0.70190498848763    1.21129050290666
O          -0.89590249692314   -0.86567589327969   -0.33189113956585
O          -2.14179647100699   -0.19858926773267    1.64950727342762
H          -2.08162216337285   -0.43763345366028    2.57003161046391
O           0.18191332097464    0.68486958185207   -2.14880718974576
H          -0.27979932902725    1.49927290542660   -1.84988092656406
H          -0.33882125630536   -0.02739971683710   -1.71210839688380
O          -1.22119461859567    2.27619574312767   -0.53652011953566
H          -2.15221590008628    2.05998253716451   -0.46226028425087
H          -0.78105376398567    1.83564150997094    0.21480722453997
O           1.67818953942939   -2.05280877017187    0.03028289009165
H           1.08976294093605   -2.01417629740148    0.81812573700758
H           1.14813272786041   -2.45975581479137   -0.66073770153245
O           1.95079399008337    0.44232950148522   -0.43086248343658
H           2.03277672845133   -0.57223344286982   -0.31999534024215
H           1.30236840782661    0.60043577705500   -1.29851089260629
H           1.31365804321682    0.68744052668020    0.33654564608813
