    19
        -40.92079116
S           0.24561000727798   -0.69482644351210    1.28998376797115
O           1.57067377621313   -1.25884251612617    1.27702700022973
O           0.25787722678101    0.76646215447597    1.38280839646272
O          -0.60628156282099   -1.14296563184861    0.19712632087948
O          -0.46955525012539   -1.20792850359073    2.60536515777565
H           0.16565966211395   -1.01995699175506    3.28922767961827
O          -2.76439415099557    0.29140632594741   -0.20938023284731
H          -2.07939274195535   -0.36607294073651    0.05778165275036
H          -3.25512830390902   -0.10381961445234   -0.93273773730306
O           2.67443397534820   -0.03837348947762   -0.79113097384300
H           2.34526534330946   -0.45773689169436    0.03325281067057
H           3.43178217857857   -0.55638987277657   -1.07010672064083
O          -0.77930951913825    1.86500433938475   -0.57769993672854
H          -1.70012138762245    1.44814779788548   -0.48646659264794
H          -0.30555502464840    1.54100789310308    0.30672208004071
O           0.31935063023735    0.11057290769896   -1.96577736782270
H          -0.03844132416123   -0.57798178995283   -1.36933685085919
H          -0.28949527511287    1.25470084457087   -1.30234184801051
H           1.27702176055322    0.14759242293419   -1.73431662569401
