    19
        -40.91836634
S          -0.63417407510354   -0.93797975203290    1.61438585214996
O          -1.02314384721601   -1.94201783424755    0.64114731470286
O           0.78324347787051   -0.65811482512127    1.61726143951905
O          -1.44197421355458    0.28252237252988    1.46392523800291
O          -0.99147462529676   -1.51557167146395    3.03822445211480
H          -1.89472563060144   -1.79552371163714    2.92503246403375
O           1.97681363148819   -0.11794251027349   -0.59404641793871
H           1.54949029057312   -0.32964915827010    0.28272631778172
H           2.89629638690042   -0.37134153755235   -0.49700601481844
O          -1.33434166912303    1.20027014226889   -0.81756472332103
H          -1.45336285641662    0.87032748252943    0.19593191099745
H          -0.51037803639232    1.79037536190955   -0.82940093286042
O           0.97367389817359    2.33854512690437   -0.96415270950217
H           1.23751460996946    2.65135446151910   -1.83150379647644
H           1.47565390617849    1.51164198718881   -0.78964874130967
O          -0.41338037743105   -0.96077770128659   -1.68270487554961
H          -0.69826248130164   -1.50367020342350   -0.90443806911220
H          -1.03823733990555    0.31268666169644   -1.31019413780465
H           0.54076896120953   -0.82513467120254   -1.55797456062375
