    19
        -40.91892659
S          -0.34751108983888    1.34494491832855    0.35512587345549
O          -1.36837934144084    1.76811992057287   -0.57910409333310
O          -0.81036909405915    0.21146359488059    1.17771648613555
O           0.93465759538307    1.06096232089338   -0.24048934893617
O          -0.12519904008052    2.53664249268768    1.37052865943256
H          -1.00089331005889    2.87083624189793    1.54143561666389
O          -1.54106780264914   -0.25486759664885   -2.20017731313495
H          -1.46717001231223    0.59204617439564   -1.69001843822420
H          -2.44721439039573   -0.30386814403159   -2.51252983786404
O           1.86829405599467   -0.36138676606313    1.85834089847192
H           1.03027463755130   -0.47800863689870    2.31542320149810
H           1.71688534009361    0.38350889762300    1.25290575633716
O           1.81224552541496   -1.52414833478586   -0.54718995062756
H           2.05976394978764   -1.38802500878849    0.39531894207539
H           1.80343377184388   -0.62210191942686   -0.90547462698213
O          -0.66949923785779   -1.74767654223078   -0.33757370005975
H          -1.04670914465626   -1.29870634906658   -1.17643635418456
H           0.38799914614945   -1.78883222004923   -0.47104741407151
H          -0.78954156831012   -1.00090305328024    0.39324562347813
