    19
        -40.91892666
S          -0.36144694869315    0.34712080038047    1.34448901543975
O           0.91326988966818    0.81589820898636    0.76909235456718
O          -1.38770772532758    1.36263806687871    1.24632473344971
O          -0.73062210911411   -0.93731307452521    0.80306513892714
O          -0.07146170578222    0.12775781135381    2.88335776358148
H          -0.09363529586462    1.00349533302535    3.25791102437007
O           1.79970750134228   -1.86129634777172    0.60898362312841
H           0.90366030244778   -1.70912472277371    0.95334923443868
H           2.25534765148555   -1.02400988655660    0.73590206942552
O          -1.78950574305208    1.53279699854682   -1.31482435464647
H          -1.76735625783957    1.45921203359570   -0.32635132546772
H          -2.04048071738827    2.43772549215097   -1.51270023961278
O           0.29044154796366   -1.81227700088628   -1.59552509695353
H           1.04071355425229   -2.05620733339775   -1.00760957624312
H          -0.47036069812624   -1.80881784723362   -0.99305893903656
O           0.57258875247599    0.67124866933753   -1.68352801642806
H           0.48191863781676   -0.38615772605117   -1.78579192681087
H          -0.37993412108924    1.04449766927499   -1.71128188120559
H           0.83486347480728    0.79281284574759   -0.67180358092584
