    19
        -40.91966028
S          -1.16632308889697   -1.19571252314545    0.37728316183539
O          -1.71819665040510   -0.72406172641577   -0.90235562134999
O           0.00458237865041   -2.03013343286531    0.15697712155865
O          -0.92474755365015   -0.10508974114398    1.28896314114112
O          -2.27662137917776   -2.11219669316198    1.01422824801759
H          -2.38532312963945   -2.79986401164932    0.36446266792291
O          -0.28836847096303    2.40712986824080    0.45727977581790
H           0.57437466923424    2.16130178008765    0.87192005956527
H          -0.91913537404172    1.83268025494853    0.92159362057555
O           1.63436874467714    0.90651525863339    1.46970834527879
H           2.07125631746437    0.43387041335457    0.75187859954347
H           0.85376937635886    0.37508735901285    1.69698903005949
O           1.75608339236669   -0.54568939116755   -0.97817121665662
H           1.14072250849005   -1.18705475605342   -0.51736906657222
H           2.25376359210432   -1.06037645818061   -1.61635068092158
O          -0.16448929984530    1.04824407917465   -1.63168088709473
H           0.69238376786629    0.52964082058299   -1.49826018929431
H          -0.91466702600199    0.32536405023012   -1.41549213371188
H          -0.22343277460650    1.74034484952161   -0.81160396572174
