    19
        -40.91892624
S          -0.27864278646632    0.55523457807714   -1.29317866697166
O          -1.66805269843625    0.26496593241254   -1.57468599504455
O          -0.14310472894195    1.43420780328033   -0.11623242436661
O           0.56671076984051   -0.60635149681367   -1.17105348624799
O           0.27667523558964    1.39775100764765   -2.51063094526831
H          -0.42590764920738    2.00599897543052   -2.72074858816405
O           1.46805903194647   -1.44918512215258    1.28712608996950
H           1.18190089647405   -1.71200007509640    0.39792188533091
H           2.12893512495543   -0.74188171957325    1.11037941202946
O          -2.38442540402374   -1.17637718794134    0.46412030660635
H          -2.16612574080938   -0.72036350205256   -0.38886473400719
H          -3.31462039316830   -1.00809149235398    0.62992248027370
O           2.56850456282079    0.67996896292383    0.10586199693689
H           2.05302386606631    0.26936847927859   -0.60847874915579
H           2.08566782739292    1.48230268998332    0.32497456833186
O          -0.54532013114166   -0.06399210622144    1.81933754389042
H          -0.37385855510426    0.67278109961748    1.08815809792457
H          -1.33502696418601   -0.58460736772071    1.42803570074537
H           0.30560771633842   -0.69972944889737    1.72803549727831
