    19
        -40.92071434
S          -1.24743720954286    0.76730721009539    0.22354994374858
O          -1.24775525716688   -0.67723993804017    0.20240163592538
O          -1.44095445413907    1.33762853389800    1.53685910216785
O          -0.03038097447223    1.29431131091656   -0.42528110057982
O          -2.45422369241736    1.25855561630942   -0.67027886044921
H          -2.67465232270380    2.11148445236968   -0.30676615301089
O           0.85444651707724   -1.91681282239203   -0.77321631282706
H          -0.05826030715924   -1.71152044029698   -0.46506759705430
H           0.90128687655156   -1.48895464778635   -1.65392160261572
O           0.18980099632344   -0.38095910913958    2.65059276839932
H          -0.43909839533529    0.34207026939516    2.41654671869302
H          -0.30705778303399   -1.19442309547167    2.52271598780021
O           0.67350713504131   -0.03194446637858   -2.64859575073955
H           0.32079416415055    0.54056563156828   -1.93866049934484
H           1.26366523122369    0.51211367383084   -3.17214490032613
O           1.75020604683849   -0.11129854781958    0.66411771142230
H           1.27572252666722   -0.25922888682095    1.56647514096767
H           1.50808917029162   -0.99232507332314    0.05529312175249
H           1.16230174172114    0.60067032911252    0.21538065607014
