    19
        -40.91597548
S           1.54814014869241    0.46970643554615    0.86761189687010
O           1.35752600940698    0.70511445717589   -0.57692033419282
O           0.94521726865780    1.54033189878890    1.64176863851300
O           1.14137654550681   -0.85059322986331    1.26212484116930
O           3.10857479485179    0.56824633108740    1.09728687146562
H           3.28727012595231    1.48541667932383    0.91437027825799
O          -1.60169243756653   -1.31799833043776   -1.83129560745716
H          -1.33145954678779   -1.50612883491509   -2.73229065301351
H          -0.99313415880887   -1.85283926468753   -1.24707897021993
O           0.09205082554610   -2.62397724347931   -0.34332313137379
H           0.56385439467299   -1.95749166364545    0.21102056179103
H          -0.26490589485281   -3.26114988014052    0.27850980773369
O          -1.60266731550518    1.47254512215398    1.25551021950538
H          -0.64777621588654    1.46687411823464    1.53715449986952
H          -1.95346748619781    2.32531732873690    1.52121667624985
O          -1.00021314456676    1.05194201299363   -1.17356325337446
H           0.05415071326182    0.94174595294096   -0.97911803985301
H          -1.31514105570317    0.10708531682961   -1.46113288059027
H          -1.38770357068017    1.23585278336410   -0.24185142135104
