    19
        -40.91966073
S           1.50713317390306   -0.69743722094455    0.41831373431747
O           0.91942766793142   -0.58292131788472    1.76205659851943
O           0.90186296333218   -1.79735462828376   -0.31653862267502
O           1.46118555175844    0.55607831786390   -0.29277067643114
O           3.02183862306581   -1.06513965178718    0.63836536154863
H           2.97495018834075   -1.89918340333364    1.09551860147942
O          -0.59005788695922    0.96624957772480   -2.09055267851758
H           0.29616433316538    0.73535662623471   -1.76702849161660
H          -1.13772147072257    0.19002247713340   -1.92608945702948
O          -1.58243634539481   -1.22803739942156   -0.56864255859946
H          -2.10673356259519   -2.02876364864463   -0.50721135687480
H          -0.62402437099151   -1.51594224899024   -0.53633318682594
O          -0.48294893501228    2.41633400668171    0.11386511135059
H           0.46112370430920    2.19239341391809    0.16027256149952
H          -0.72564797130071    2.14236049748155   -0.80412033161877
O          -1.29817989109680    0.43107636738295    1.38637630329520
H          -1.03465946806845    1.35767461047636    0.90967463719300
H          -1.59794306791692   -0.18826724262578    0.64634579216874
H          -0.36333324574897    0.01550089702861    1.67849864881087
