    19
        -40.92136397
S           0.39151147051436   -0.70264315546762   -1.12950774368438
O          -0.92100092180739   -0.03646742309212   -1.05620733637066
O           1.24908655027377   -0.11254996340426   -2.12713151285081
O           0.98901121647066   -0.80740642347208    0.18257061670118
O           0.07482843079968   -2.18447692721415   -1.60357351176195
H           0.12168914069790   -2.14114878886262   -2.55445564013443
O          -2.01471145359900   -1.38392129104875    0.99226200234255
H          -1.73247355785064   -2.29560980508257    0.90133498114357
H          -1.76539516531936   -0.93982346870899    0.15992135408597
O           1.85238353032546    1.83968421404044   -0.46343452927824
H           2.42763991416399    1.37449861612091    0.15036207009965
H           1.71882110548353    1.21766205494768   -1.21431983197211
O          -0.28071594711281    0.21386262010850    2.23482818596795
H           0.37961848268282   -0.26386717238315    1.68261235186010
H          -1.09242211363041   -0.32560517074774    2.10984619052363
O          -0.52538414356507    1.92396346608470    0.45812107380853
H          -0.85302878741070    1.23712797814347   -0.23185321544906
H          -0.45847721097164    1.30208041318824    1.35569973109059
H           0.43901946985586    2.08464019684884    0.15292476387785
