    19
        -40.92136403
S          -0.24951259437363    1.33440093651153    0.28204682564778
O          -1.21694152228620    2.09779137214464   -0.46646486176278
O          -0.87482258132549    0.25368157333085    1.06491876421294
O           0.84895820864308    0.82696824023568   -0.50879296539849
O           0.38183503815456    2.31218006936709    1.36197433730448
H          -0.31057046947234    2.94242195083267    1.53984435409935
O           1.38544735930741   -1.73653080726458   -0.42812122164463
H           1.53263256313043   -1.76220352129611    0.54311638837172
H           1.43382897221962   -0.77314978102367   -0.62530540856277
O          -1.28417269509455    0.21559222169189   -2.31007466045760
H          -1.40943542204162    0.99043226971029   -1.71652258393576
H          -0.43489194031126    0.35935421548384   -2.73686923314297
O           1.31605466454353   -0.90058650204498    2.10148017069948
H           0.46426956772804   -0.47214805199029    1.89354457725994
H           1.92512461902865   -0.19111719936277    2.31302892463596
O          -1.08646482533816   -1.63880479380417   -0.56789965595099
H          -1.15656656384564   -0.96537105476984    0.20464672180911
H          -1.25191866155262   -1.04149090425394   -1.38282461788438
H          -0.01285369704965   -1.85142022344674   -0.56172584534283
