    19
        -40.92120542
S          -1.32454077905527   -0.02422809102863   -0.38338434680433
O          -1.84736207968846   -1.08957179189792   -1.19378065307013
O          -0.99492352028435   -0.44075556937627    0.98004127713135
O          -0.23314619450821    0.72988549671989   -0.97837379941712
O          -2.50019942540327    1.04455754876445   -0.21793644931316
H          -3.29746830749859    0.52570327779202   -0.26817559078387
O           1.26713826726288    0.26489724817276    1.68990377863193
H           0.30774411334608   -0.13266876041303    1.51551382948631
H           1.09635612202318    1.25155295445742    1.52887316796011
O           0.36912048560876    2.51108689814597    0.84503625793130
H           0.11637426153567    2.01019231722985    0.03542839011592
H          -0.44968952167720    2.83632417217603    1.22379573366099
O           0.41478086514122   -2.47562150675719   -0.90382917803613
H          -0.44891470867445   -2.02790336802240   -0.99044989415761
H           0.40536408145935   -3.20259064283685   -1.52983404815305
O           2.12097034598235   -0.46390010696096   -0.53860145099290
H           1.79046343162844   -0.07222234205875    0.82227679932854
H           1.73114402489062   -1.35758995184786   -0.64538213745563
H           1.47678853786161    0.11285221701982   -0.99112170613969
