    19
        -40.91836649
S          -0.62937830843353    0.81948444604481    1.67977039282360
O          -1.89051651959208    0.23073674585031    1.26848869473272
O           0.42701569409768   -0.14957800738104    1.85952584769724
O          -0.23582322798558    1.90944108318519    0.77302469892371
O          -0.87388562538113    1.49743956755425    3.08301945931652
H          -1.65093329299450    2.02484394122045    2.92429082738340
O           2.06589464183784   -0.16722342512327   -1.74728336119410
H           2.21174752508733   -0.63282678245515   -2.57299254981181
H           1.79365279527461   -0.83720900529526   -1.08136930340638
O           0.92499319819969   -1.84949945071517   -0.00285389159139
H           0.75677530836314   -1.20950338847635    0.74427713972474
H           1.31294675206323   -2.62399516292383    0.40789421029223
O          -0.12473884080869    1.17955412640898   -1.57493062753616
H          -0.15795434518405    1.59288433801585   -0.58550847012485
H           0.80697694062016    0.79785159526413   -1.69260122000929
O          -1.44335701818866   -0.87929034356536   -1.03470853779442
H          -0.75377116981020    0.33491645862302   -1.48733510681332
H          -0.73745990403835   -1.49838116806231   -0.78461646884120
H          -1.80218460324236   -0.53964556852902   -0.17609173352375
