    19
        -40.92120599
S           0.37364574762116   -1.30520967517943   -0.23899607690120
O           1.16750755008795   -0.52674159112187    0.71212160449502
O          -0.32501774185751   -2.40481839340178    0.36756670774798
O          -0.44114411085125   -0.43726095326146   -1.07386607621111
O           1.43802041734205   -1.93975415327219   -1.24720214225931
H           1.64912414269171   -2.78522221971577   -0.86257686968268
O          -1.68961350506698   -0.73026832075963    1.93488975482134
H          -2.42317974135604   -1.21406673315600    2.32024658909744
H          -1.17118390852306   -1.38090944778388    1.42313357481811
O           1.24482673978291    1.37713997025486   -1.92491299298156
H           0.57618472509520    0.66295978923797   -1.81059239405194
H           2.07045248992896    0.93793946454153   -2.13744681918906
O           0.77811839743996    1.90975726102993    0.53758872416926
H           1.03496231936012    1.96072398730418   -0.44224555044509
H           1.01563340527433    0.90650899009348    0.75200049265939
O          -1.66755529876904    1.43759921095893    0.38914567793747
H          -0.28911793172539    1.87419944648366    0.54449211267618
H          -1.52245538791666    0.84554092872544   -0.37293518513924
H          -1.81920830837394    0.81188244904537    1.12958887839929
