    19
        -40.92343665
S          -0.23805170784605   -1.53776018519472   -0.65162343485439
O          -1.14733032342239   -0.41913892913476   -0.84406175184355
O           1.08655459315334   -1.27285752758576   -1.17133489662862
O          -0.19947091131571   -1.96963774656266    0.74642359753278
O          -0.84041088743967   -2.74217956848688   -1.46925914541927
H          -0.22080790467506   -3.44374496002012   -1.29483314858189
O          -1.61851679830312    1.27213291103095    1.16577018266149
H          -1.72662057262300    0.59950181595537    0.46151360839544
H          -1.33618980158091    2.07130622537277    0.70734467837818
O           0.00833987280650    1.94793377946745   -1.17668653678215
H          -0.43768752408760    1.07266792038013   -1.20125921377154
H           0.19476527305520    2.17947622483975   -2.08754678327826
O           1.93487844852578    0.74631222226163    0.25940153646695
H           1.84403592744907   -0.06032599518503   -0.30192139055693
H           1.40918383183257    1.42175311892637   -0.21801562518691
O           0.40229605886477    0.03095218451492    2.08962598364712
H           1.15565199052708    0.39313621700052    1.42318602266564
H          -0.43001170700778    0.60329303180660    1.89936286936263
H           0.15939213208406   -0.89282073936991    1.66391343779354
