    19
        -40.92179441
S          -0.81413939021617    0.08315388394020   -0.50746075982705
O           0.59472870615022    0.55626088904321   -0.96129719697217
O          -0.67662979975874   -0.55547655892910    0.78631998295633
O          -1.73126832107354    1.17166275128773   -0.53792044315723
O          -1.16259504805612   -0.96212055750855   -1.56132671186366
H          -0.32543384451194   -1.53995372395873   -1.71365608134449
O           1.11792303768152   -2.51923571484824    0.85627919786078
H           0.72416558922365   -3.27569319488367    1.29512163329256
H           0.49073795005531   -1.77594639697144    0.97047137573954
O           1.03831431291679   -2.19092806361509   -1.75856684156001
H           1.18168526984775   -2.45591585246248   -0.81566975833387
H           1.63219997379550   -1.45125258736873   -1.91765958462989
O          -0.75358689486031    1.79608338633409    2.12279341504517
H          -1.67411698262286    2.03787270172680    1.99164793844437
H          -0.69074803712260    0.86656386456247    1.84480051642102
O           0.48297449635155    2.88359606096035    0.03194543519754
H           0.70178029628046    1.50951770804398   -0.61538544265541
H          -0.29372434021577    3.20544490085652   -0.43625053541322
H           0.15773301613350    2.61636648377771    0.92581384079932
