    19
        -40.91317587
S           1.16625765184403   -0.22562798734121   -1.63852095246741
O          -0.25396159719853   -0.38337156215750   -1.35114626032135
O           1.57312301641147    1.14496399872631   -1.78473329573830
O           1.97478594774643   -0.94484640913641   -0.63582475756014
O           1.42625199624078   -0.96230181484417   -3.01210993104972
H           2.27483008951664   -0.63985531560906   -3.30397288905903
O          -1.26183313850965   -1.59202741169837    0.82045640406596
H          -1.91737640255268   -0.92698852491206    1.11086669345700
H          -1.08018770859337   -1.38571260195086   -0.11870009698665
O          -0.10901908840142    1.61325127225190    0.34034017972806
H          -0.33318361743986    0.97703038936746   -0.37810705218297
H           0.54445861067249    2.18594082894808   -0.07663348051929
O          -2.46332856095332    0.71388815213155    1.59479563610994
H          -1.81190138281316    1.29265825450260    1.17470929271355
H          -2.63999939839699    1.07027593284780    2.46650839801170
O           0.87643574913855   -0.50913782363483    1.50884779724929
H           0.58271708326965    0.42543578372977    1.30013161452791
H          -0.01443236851411   -1.08531489330978    1.35615300935083
H           1.46636310853415   -0.76826026791029    0.62693971065968
