    19
        -40.92136395
S          -0.88752460415219   -0.14302701178450    1.05668730588815
O          -2.05531641108874    0.69384935326036    1.17905447240639
O          -0.95143806322730   -1.02259226012353   -0.12381204721364
O           0.36634071367848    0.57539199800467    1.09529396401106
O          -0.88575764184873   -1.12647103568367    2.30301866932330
H          -1.80800597272275   -1.23027769276528    2.51965971445824
O           1.45535756088458   -2.20114576421343    0.03302576060487
H           1.62824070259950   -2.34803898351420    0.96453933305769
H           0.51753251301018   -1.93878253316981   -0.02947378949089
O          -1.07668833294506    2.33959045564966   -0.63049054165890
H          -0.38045874527546    2.76470692087668   -0.12194711083372
H          -1.60189731761321    1.82889204934471    0.02681728003065
O           2.08046196440508    0.23113943540810   -0.85692216578239
H           1.66448662152850    0.52307952104798   -0.01368084674084
H           2.16027350026664   -0.74008359248719   -0.72923965507341
O          -0.11024236798111    0.41581940290391   -1.99971159310475
H          -0.54828667669844   -0.28418777519428   -1.38924397927013
H          -0.49481986225229    1.28940045237994   -1.62821424089436
H           0.92774242957614    0.37273708011400   -1.65536051973436
