    19
        -40.91274172
S          -0.83583621003220    0.27679070612522   -0.96869242837246
O          -0.38894879808313    1.32794525723357   -0.03307063061355
O           0.15003651672817    0.10269764414719   -2.01820418830153
O          -1.17781460525263   -0.94771371179925   -0.28750647018625
O          -2.14971202498708    0.81578614499107   -1.63824929197757
H          -1.91301218727751    1.63832170059327   -2.05707345675144
O           0.36413624367591   -1.69049368658134    1.68772359699830
H           0.77567341503314   -2.51385732878997    1.41563262476187
H          -0.34291056878260   -1.49942267024384    1.02390902772942
O           2.49650080885419   -0.37393649406347   -1.05727718180857
H           3.12791728401972    0.13198620911175   -1.57310434253848
H           1.61928851822504   -0.27739394925025   -1.52056323926868
O          -2.74833073669328    0.74081470493381    1.33392532172726
H          -1.98628793817449    1.26576935827944    1.07029601243199
H          -2.64474800807828   -0.09690048383571    0.87349634933916
O           1.59502514246851    0.44468552338684    1.15524481647310
H           2.12135439533445    0.13946669423622    0.32074084979596
H           0.76036426232676    0.94013702946830    0.73462508524489
H           1.17730451043827   -0.42468263799509    1.53814755532511
