    19
        -40.92315429
S           0.16032352307107   -1.59006380970593   -0.57377761470580
O           1.51599871736114   -1.46129531826942   -0.03284517549577
O          -0.82274725639792   -1.17759368140286    0.42978188297966
O          -0.03046869832469   -0.91044934445373   -1.82675025881510
O          -0.04691844353670   -3.13175782229144   -0.81859896488762
H           0.40802607366357   -3.52194389907524   -0.07874067910761
O          -0.16041540656223    0.71080791682016    2.17338380681990
H          -0.43686252899416   -0.12108118390680    1.72982633035526
H          -0.84859603823767    1.34894004311338    1.95717679952396
O           1.81420372678606    0.92767449438381    0.58747867806402
H           1.84773142546871   -0.08834963067625    0.34577848538539
H           1.12197047981046    0.95940410988903    1.34785482065749
O          -1.90541437814395    1.17977024099359   -0.14372558755853
H          -2.66661810974685    1.13160068759366   -0.72374418677768
H          -1.62066156113237    0.25140004892948    0.00901269806844
O           0.43595897821256    1.63049999476617   -1.36706911964523
H           1.32353332435395    1.35347589313688   -0.26139204969543
H           0.36003341526511    0.74432654039718   -1.78850411488106
H          -0.44907721313110    1.76463469981145   -0.96514576031364
