    19
        -40.91274075
S           0.83111462318131   -0.67991080652776    0.74843145623047
O           0.52906193906970   -1.11396671012099   -0.62988371634044
O           1.86294731819078    0.33928010828054    0.72711967413895
O          -0.35649216618807   -0.28706591893021    1.46656383465489
O           1.42328909533679   -1.93396592842000    1.48476697919902
H           2.21222064268372   -2.17090289937419    1.00555219950221
O          -2.15864827842526    1.07697888181469    0.15337932040184
H          -1.61128274141804    0.50795134661890    0.74802876963946
H          -2.19965894879856    1.94156941008147    0.56823678522806
O          -1.35191002949189   -2.77468500266398    0.59067765569204
H          -0.75643552145777   -2.47462862816421   -0.10299015091832
H          -1.27981225636444   -2.11228374605965    1.28388701156712
O           1.21382192779677    2.31387776239836   -0.80265590943856
H           1.51347166273256    1.64086392603168   -0.13157182288179
H           1.99779886986807    2.56829969482573   -1.29392873133245
O          -0.55607885505822    0.79473436128299   -1.77254261736933
H           0.14497968680564    1.51008912939613   -1.52233603093473
H          -0.11701266965675   -0.09653755397572   -1.40858294429154
H          -1.34137429877413    0.95030257352519   -1.11215174277999
