    19
        -40.92267749
S          -0.20765811312171   -0.92580919306451    0.48298204951162
O          -1.09006456908919    0.03536531289326    1.10434443983048
O          -0.72524479836363   -1.44252678518742   -0.77531701827264
O           1.13720151043453   -0.33599308492296    0.26720600514382
O          -0.00751190931545   -2.10870119329183    1.47077727978933
H           0.56724599669657   -2.72446783385975    0.96405524428137
O          -1.34867887932672    0.90846594091798   -1.75209505958489
H          -1.18219788012348   -0.04077884263403   -1.53913042415589
H          -2.10885703990714    1.15879621385110   -1.21969890575431
O           1.42043036781734   -3.05072432932777   -0.51792732349443
H           2.05277453453270   -2.32487840552672   -0.51490363890607
H           0.64591496571654   -2.71836038097294   -0.99925854804672
O          -0.44931975203191    2.54113865657998    1.44921336723283
H           0.04746156327431    2.63042998287403    2.26487611496131
H          -0.81865944860099    1.62369690546431    1.44714331857212
O           0.74428237116489    1.88706486937491   -0.69617591154959
H           0.34639795782423    2.34463601794211    0.13012981402187
H           1.04918453698412    0.92125787320337   -0.30020474367894
H          -0.07270142454622    1.62138828565782   -1.26601605990314
