    19
        -40.92136378
S          -0.89582989554127    1.04155765975165    0.18027223158037
O          -2.28848694197389    0.80254839684407    0.46675232224127
O          -0.01518798343346    0.58997288618764    1.27218597978523
O          -0.45080732620839    0.51583475275777   -1.09055408294746
O          -0.69547255707965    2.61535828079056    0.11512921149732
H          -1.35945481260222    2.96078052461734    0.70514729308280
O           2.37820875650461    1.12243569958397    0.17875055863099
H           1.56773732614965    1.02605770212835    0.71343582639543
H           2.27691994330275    1.94061935420410   -0.31063758837531
O          -2.00203587367517   -1.72368805804152   -0.22878366249060
H          -1.93355853034136   -1.63487185477501   -1.18350947278744
H          -2.28124505081678   -0.83691071121502    0.09374747095433
O           1.63500085648256   -1.06952199282440   -1.14319928611268
H           2.24558884709156   -0.41917349994773   -0.73115278362185
H           0.87880420341688   -0.50439578599868   -1.42242574851069
O           0.32571817595818   -1.85147200711212    0.80999149561489
H          -0.60873130217580   -2.00413646855192    0.42046241394248
H           0.98344250241673   -1.66653926848382   -0.04466931189351
H           0.23938965235349   -0.90445561007312    1.19905712282804
