    19
        -40.92136410
S          -0.14606335917047    0.55464212693214   -1.26251216706382
O          -0.84211504370337   -0.13929333195636   -2.31744063056735
O          -0.96173271343099    0.85262390491172   -0.10684796128006
O           1.09496396157897   -0.13316105661095   -0.86461673547497
O           0.32811141486713    1.94922031145694   -1.85524335424949
H           0.44361595355897    1.78047573108589   -2.78608398239452
O          -0.13385220708647    0.08288597528260    2.25695541595418
H          -0.65915535694758    0.50032248916870    1.53643701867200
H           0.71467708084973    0.57679880845523    2.21472085444315
O          -1.83407605791082   -1.83194209658096   -0.55819043288392
H          -1.53589835472817   -1.32076668327107   -1.34452472701897
H          -2.48558134996206   -1.27287703741617   -0.12570114223042
O           1.87713418817705    1.44523015110746    1.16103167674984
H           1.75593413222967    0.90051495600256    0.36047969431202
H           1.66651520254167    2.34461189874951    0.90419656768353
O           0.33257131354581   -1.85840064547212    0.78964953855146
H           0.13977834792546   -1.11809214155117    1.57264152129411
H          -0.56880044426156   -2.03125913077744    0.33553528677223
H           0.81397328193200   -1.28153424952353    0.08951355873384
