    19
        -40.92136406
S          -1.11435615090667    0.37093329968195   -0.73696716046774
O          -1.19160028552870   -0.67599675425977    0.29719654617990
O          -1.89378331953397    1.53507831524785   -0.39617293782901
O           0.26099008186845    0.65470820654644   -1.07975892293903
O          -1.77936488258856   -0.27450455483142   -2.02632466639613
H          -2.69933337135162   -0.03485342702083   -1.95970439841187
O           2.16837831514943   -0.61843797561926    0.18749646432168
H           1.85727386166262   -1.51454670161182   -0.06944826064706
H           1.68741450497934   -0.03674864986547   -0.44471799945767
O           0.50357636502620   -2.48198921738463   -0.73753376478305
H          -0.22751734407599   -1.96064477101271   -0.35550559397108
H           0.36872893757296   -2.47133695533293   -1.68666061168241
O           0.03232299398875    2.36456194721722    1.19937760495312
H          -0.78826109688748    2.19583056286643    0.68289752125204
H           0.68217032770950    2.65474333937587    0.55321284726877
O           0.55720659729921   -0.01140819445625    1.96902444996419
H          -0.24291537610670   -0.39149993483524    1.44951226909387
H           1.38678950519799   -0.30031698099921    1.31514099809537
H           0.43228031661415    0.99642843624744    1.83893559545335
