    19
        -40.92120582
S          -0.14171003062016    1.05411077789004    0.87948519536105
O          -0.69213925106873    1.20631150369216   -0.46796483451721
O          -1.14750294878947    1.03414181894844    1.90568315198836
O           0.82002590868606   -0.03500238607374    0.93219816081464
O           0.73421718668169    2.36751575537382    1.12078275275339
H           0.12211943260736    2.98972001270327    1.50223051578973
O          -2.26078947819968   -1.14828870224273    0.84982793219219
H          -2.85968421600198   -1.52078049745161    1.50043156937391
H          -1.92155422807278   -0.31694573972089    1.23465713811792
O           2.40189275695140    0.41133623735390   -1.10665511705653
H           2.57247082598433    1.35399161285358   -1.15105013992125
H           1.98568337481366    0.24890486938133   -0.22873722264216
O          -0.11674024120739   -2.20732014760938   -0.31945384906670
H          -1.02970722227965   -2.04400843430311    0.00125185528596
H           0.43138083461494   -1.69852888590141    0.30740442375710
O           0.19229710818943   -0.45705649087193   -2.07079563598924
H          -0.29588675374403    0.28083677137494   -1.49936450653934
H           1.16234474216931   -0.19777728650233   -1.92849988709559
H           0.04328220925530   -1.32116079889569   -1.46143147278749
