    19
        -40.92120621
S           1.19907299030759    0.43861254984103   -0.52024012696652
O           0.90677638087995    0.74162863542053    0.88113842585157
O           2.31121092194959   -0.45556624495118   -0.68910446142603
O          -0.00954712404604    0.06861512438892   -1.23869376662206
O           1.63118273481320    1.83451454089022   -1.16558248619813
H           2.57604788415354    1.86373385405679   -1.04881890860621
O           1.04415441797222   -2.36547117191382    0.67772130113059
H           1.56648548621524   -1.67582196242532    0.22423926680089
H           1.50112128506279   -3.19467420663711    0.52172986780291
O          -1.47543550285255   -1.66921138891602    0.17218324096802
H          -1.14838797086098   -1.20839335427469   -0.62340776328112
H          -0.67523996806766   -2.12786591740147    0.50708770044185
O          -1.71480163594249    1.95709290943372   -0.61898875353380
H          -1.11577170162127    1.30484026545051   -1.05013191373713
H          -1.24712708317751    2.79431303120186   -0.62582598246954
O          -1.48373832707002    0.47065975650337    1.45555536807453
H          -1.80913146326370    1.12669593029735    0.75406726311310
H          -1.61600809603034   -0.49417577030697    1.01734276266780
H          -0.44086321841726    0.59047340934271    1.36972895600517
