    19
        -40.91821043
S          -1.23351887314988   -1.54970973250384    0.14105991918148
O          -1.14420235780296   -0.79170784443328    1.38009826724603
O          -1.65732404381286   -0.67679580862758   -0.96706910189822
O          -0.03826385886585   -2.29325563762837   -0.16259138491478
O          -2.40873218365385   -2.58588613698503    0.32446335970243
H          -3.16008449507648   -2.02017830978343    0.47429258613665
O           0.29900531930956    2.63552023367078   -0.14749523873652
H           1.05005483024365    3.22666697708916   -0.22700456583585
H           0.48504765964611    2.03126607726685    0.60522955665878
O           0.92671304617762    0.70296867484375    1.59588416111182
H           0.11128912497058    0.12449395011922    1.53919595951154
H           1.11890535745866    0.77925989329983    2.53197512658478
O           0.16089840546098    0.71772240077218   -1.86672163866821
H           0.11806946690127    1.56038581142711   -1.30605912551418
H          -0.67979672098357    0.12393819949070   -1.56284048662418
O           1.88769795083153   -0.60236236820726   -0.62086260530162
H           0.97842450287235    0.17536896147789   -1.47502380954747
H           1.86019745249228   -0.15252636622001    0.24130501386015
H           1.32561942700554   -1.40516896505358   -0.49783599294627
