    19
        -40.91892664
S           0.78441835280213    0.81857361570589    0.87852439051885
O           1.84609055156636    1.38915767961519    0.07777484376010
O          -0.54469573347568    1.22597687072265    0.49569159754372
O           0.88898169219091   -0.65139394609756    0.93904399879577
O           1.00449704767035    1.31623190676966    2.36337959424629
H           1.94786603232477    1.27686863383626    2.49116279909043
O          -2.23428817019606   -0.49453308465577   -0.82759480642368
H          -1.95294184159917    0.42623072803591   -0.70711709431303
H          -2.37858626844992   -0.80750053812576    0.09414220358328
O           1.27312190796640    0.54803028315364   -2.31272852510857
H           2.09798966571705    0.44051074367689   -2.79136001969199
H           1.50353433133991    0.98869443067355   -1.45503068483902
O          -1.79989629749728   -0.78228088820529    1.79282331783812
H          -1.02854515127463   -1.33269070850358    1.95677737460784
H          -1.43766853365960    0.09908920456211    1.60163905758002
O           0.04867157001034   -1.41721012998992   -1.26576831201741
H           0.43794954786929   -1.22209822717699   -0.30827833813625
H          -0.96948357747223   -1.11191875167104   -1.18155860397434
H           0.51298487396909   -0.70973781236461   -1.84152278295758
