    19
        -40.92120528
S           0.30317280519617    1.31071219984187    0.30537324365437
O           0.99197111546363    1.65282479439040    1.51917819983727
O           1.15106482604756    0.61800513554360   -0.66572647296041
O          -0.96256584993926    0.61830642363246    0.48369877391198
O          -0.09572712603730    2.68681505671443   -0.40042428171898
H           0.60003941597234    3.28815525547675   -0.15205831007389
O          -0.58916136657870   -2.01702873423697    0.76085185776636
H           0.23112828339033   -1.88341937349483    1.28240010585172
H          -1.04895370798536   -1.16092883793715    0.85029639699913
O           1.48100575702808   -0.92059675122490    2.02599505780090
H           1.76531719921309   -0.99567771844459    2.93940198825666
H           1.37506613232715    0.03436447689912    1.84988671581738
O          -1.80963672975256    0.20520246513784   -1.95985559944928
H          -1.62861660772658    0.99320025770032   -2.47544348102170
H          -1.67686660357951    0.45774668234440   -1.01709100065039
O           0.11412397278800   -1.44055127787503   -1.56280883030453
H           0.69182165379041   -0.61932988779180   -1.24435082066364
H          -0.18127047357111   -1.85971776622218   -0.62611017990691
H          -0.71191270600309   -0.96808239041564   -1.91321336314264
