    19
        -40.91893428
S           0.42782687245640   -1.51868934963510    0.72396498214959
O           0.78574627363716   -2.38301097183973   -0.37211339155519
O           1.34471721151360   -0.37541638167678    0.84991172640167
O          -0.95425254100007   -1.08142713323090    0.73636793050023
O           0.62721034004736   -2.36817023187709    2.04986499858507
H           1.36595254504553   -2.92962736455094    1.83523417833824
O          -1.78320210775280    1.32220381067452    1.23274099129354
H          -1.58933417373440    0.36605773079883    1.05208574534746
H          -2.00425850837138    1.38128461120348    2.16399412235700
O           0.51085301252904    1.63598255995950   -2.04893165907283
H           0.07362426838419    0.74425261835880   -2.11362799479891
H           1.38169420308623    1.53447205526746   -2.43798312368497
O          -0.53067877050147   -0.76908573527970   -1.99180292982636
H           0.04084282581059   -1.43814221058761   -1.56271960548392
H          -1.33872557759827   -0.78090365904253   -1.47004003061616
O           0.55928433896973    1.92377311637327    0.46263998026298
H           0.53835648544259    1.92860593528122   -0.57330682253077
H          -0.41385191084856    1.85158219880804    0.77665503091692
H           0.95819521284928    0.95625839098091    0.68706587143188
