    19
        -40.92135407
S          -0.01400321600523    1.16346387193442    1.04035285331208
O          -0.97262805020023    1.75446835412676    0.13260409208708
O          -0.30816104348704   -0.22431850606315    1.36115204417343
O           1.36139485579502    1.32449227055469    0.56739301633889
O          -0.11052867372547    1.95392131840326    2.40270520259956
H          -0.01656597999890    2.86110711958221    2.12887172021344
O           1.36098449401231   -2.01969256530954    0.36609721106673
H           2.09563591280725   -2.15039508618805    0.96846995406080
H           0.70111428238372   -1.46769511718945    0.84406275040977
O          -0.74939010866917    0.26018741500928   -2.00741602521313
H          -0.90023505300806    0.99347789268707   -1.36506065276324
H          -1.28846916754249   -0.47714141217995   -1.63290978909781
O          -2.09841067126044   -1.28642819875335   -0.34294937038859
H          -2.97343472722083   -0.94662435704112   -0.14770022414648
H          -1.51825605280523   -0.97881416649434    0.38066310061919
O           1.60577619645453   -0.18863274513253   -1.39520812388714
H           1.58665819154107   -1.05437571537208   -0.86041437782863
H           0.59892627431522   -0.04434288332896   -1.79725540850711
H           1.63959253656765    0.52734252075203   -0.64345798303187
