    19
        -40.92343661
S          -1.25051499461009    0.45523333490937    1.03602900209762
O          -0.37045462881613    1.58801730555137    1.22867729470777
O          -2.02655800901087    0.57122322221986   -0.19958490934461
O          -0.54865331987917   -0.81617637451666    1.11339193054804
O          -2.29535772933628    0.45530146185116    2.21515215161308
H          -2.73601592052824    1.29198067772522    2.10445367888137
O           0.17334330272753   -2.07281598224449   -1.12709371728455
H           1.11660296272714   -2.11311473651412   -0.93467241402117
H          -0.25139910333993   -1.84747606338865   -0.27325782511408
O           2.06337478516315   -0.70559974613750    0.65113740057352
H           1.13360934278534   -0.75378941999880    0.96568713297558
H           2.60282220753937   -0.56329472294404    1.43012764865485
O          -0.43612023028517    0.21037395639379   -2.07264779829706
H          -0.18709146015304   -0.76786082915802   -1.87970954398543
H          -1.21464116567538    0.39573692460025   -1.39942337933490
O           1.30277062036523    1.43829100936872   -0.77703162288693
H           1.84094610909382    0.71638511547374   -0.38979124636967
H           0.35955384900501    0.79362304709234   -1.66073318794525
H           0.72378339222787    1.72396181971650   -0.03071059546793
