    19
        -40.92136328
S          -0.27306474340356   -1.17705424086826   -0.68019395759195
O          -1.05971508752601   -2.22905085654821   -0.08553968607860
O          -0.97713553366821    0.07592173467667   -0.83731575143100
O           1.00859583873266   -0.97332231655146    0.01745586420817
O           0.12440810760726   -1.66165413000804   -2.13908927564162
H           0.12965149220827   -2.61248720542911   -2.07515624254940
O           1.96541017218165    1.12577035093687   -1.35517647905651
H           1.72165044677228    0.98826822619739   -2.27211623681207
H           1.77374080412823    0.28633521605990   -0.89593278222658
O          -1.85758014052737   -0.57182842803924    1.80205503865719
H          -2.46797622340993   -0.02138657042533    1.30353896330728
H          -1.64290571615612   -1.32488627228491    1.20605945010054
O           0.08511018556363    2.25421730173191    0.15747904937163
H           0.91982490232625    2.18408385587999   -0.35670255536786
H          -0.51212934190441    1.63489935174878   -0.32144054665865
O           0.43033286332537    0.55222924745818    1.92404420278825
H          -0.50874792525357    0.17030466532996    2.06771187837713
H           0.83508019773026   -0.12490490075663    1.26700761725518
H           0.30544971125929    1.42454498081936    1.27331146940486
