    19
        -40.92218951
S          -0.27787749765763   -0.84620465147813   -0.73950133862368
O           0.40986732899632    0.26230137933553   -1.39371011782555
O           0.63553064761857   -1.61748857402321    0.10351432183892
O          -1.43015518101947   -0.37136362352542    0.02011417568417
O          -0.78824903221842   -1.82091788611454   -1.84050558124675
H          -1.38732838735098   -1.24796275181344   -2.36296585374653
O          -2.07614467008729    0.36697160695405   -2.53208845136547
H          -2.37253061010887    0.38124768299547   -1.61228172234064
H          -1.20658807561783    0.78817296947828   -2.51731072299437
O           2.13403286162055    1.47579347869683    0.11511364563380
H           2.98533677765260    1.38660184340311   -0.31874251157192
H           1.46137524896423    1.11038805381738   -0.52063338830816
O          -0.85201951862774    0.44772813878187    2.41108251136078
H          -1.35083191128008   -0.10556338182622    3.01607789834338
H          -1.16314477580781    0.20619607258881    1.49721363755215
O           1.53652022129848   -0.19543550529999    1.90957115984336
H           1.88635845585345    0.56574847282136    1.30112449841541
H           0.62347527083186    0.13093263250557    2.27245401278100
H           1.23237285691891   -0.91714595727434    1.19147380655516
