    19
        -40.92079119
S           0.96519098257405   -0.57217852989047   -0.97349582577618
O           1.17873500361363    0.37154937168372   -2.04017502486154
O           1.25804264937961   -0.05082169062973    0.35447719184688
O          -0.36635974640155   -1.17960050563829   -1.01892805259701
O           1.99140771648606   -1.75868426056687   -1.18427163936665
H           1.86970260848179   -1.99548666680182   -2.09838657929154
O          -0.81529195294415    2.06950646189206   -1.68285204882179
H          -0.58964104950825    2.88736395762379   -2.13011252900894
H          -0.10892454921640    1.42801093335014   -1.91364328629385
O           0.31101487611930   -1.46264648951908    2.35156483657218
H           0.83998498359493   -1.04247692707239    1.63278444470278
H           0.57819037102649   -1.04013309725880    3.17038102283103
O          -0.75465374176551    1.60582065760989    0.91133592831772
H          -0.94305485107152    1.94167100502016    0.00366459347396
H           0.14205056383035    1.22095759007978    0.83602188114054
O          -1.71824771867841   -0.69123209960332    0.99620809464083
H          -1.47937345647805    0.34788377720123    1.02371816287839
H          -1.26922816987568   -0.97291168910819    0.08523278127037
H          -1.08954451918974   -1.10659178828400    1.67647604863720
