    19
        -40.92136402
S          -1.12990860422417   -0.77061343320940   -0.22871377061390
O          -1.26390312306448   -2.09849185952411    0.31668914172450
O          -1.10443310881555    0.26449526009296    0.81982916831942
O          -0.01701265371254   -0.60944779215677   -1.13715030995395
O          -2.44595481273289   -0.47506476670300   -1.06641391356644
H          -3.11803200229839   -0.99720318512107   -0.63742382162300
O          -0.69975470558535    2.44960888461572   -0.68593428636166
H          -0.98609894450052    1.74498600832831   -0.07458320435196
H          -1.21007714069834    2.32822383048322   -1.48835394011768
O           1.30853690750701   -2.12851106722008    0.88811700904182
H           1.68114830265908   -2.23274536202903    0.00813322329932
H           0.34204213377509   -2.27827889826376    0.77874314450247
O           1.70910770659079    1.31030183254133   -0.69145139982484
H           1.04364152064883    2.03267594435364   -0.72427731578712
H           1.22744575738757    0.55832480879061   -1.10633846648867
O           1.29509951973260    0.33662199978647    1.54870109270902
H           1.62695624539535    0.83491412319297    0.63183121145814
H           0.27506169803766    0.39275455319740    1.44307709230038
H           1.46613530388815   -0.66255089116010    1.40551934532990
