    19
        -40.91892662
S           0.58276944296054    1.26182305829635    0.35244168270116
O           1.62683115538478    1.52076005218596   -0.61549573767244
O          -0.74889891700486    1.20563296886029   -0.19776050217843
O           0.87683931061476    0.05513338983296    1.14805880544279
O           0.59973542316540    2.45932734078887    1.38522179407722
H           1.52453456060312    2.63900551032569    1.52692002055675
O          -1.83422368967552   -0.06733334342041    1.92342180554247
H          -1.01220186330504   -0.32995555966022    2.34784305979294
H          -1.58077252928463    0.64955555216216    1.31834124053780
O           1.39710190774232   -0.47925971341078   -2.25768498268340
H           2.27068499198474   -0.67679319411441   -2.60243824823599
H           1.48545678902090    0.36076689648592   -1.73847617293787
O          -2.06331822641058   -1.18998483849253   -0.49085562263073
H          -2.24943706656492   -1.02614603603359    0.46134184809941
H          -1.91626262251210   -0.29791174661215   -0.84377979075382
O           0.35149758653721   -1.83004727003039   -0.37655128278333
H           0.76913689720144   -1.43877545912505   -1.22531955826623
H           0.62218585716070   -1.12483085120668    0.35521774736280
H          -0.70165901761710   -1.69096676680965   -0.47044611596587
