    19
        -40.91821015
S           0.41024587607557    1.64505786971360   -1.03382196805349
O           1.55960585679584    0.72533893776128   -1.08768905274048
O          -0.79665789701744    0.97828873758771   -1.49912037183873
O           0.25806038074600    2.27041707914091    0.25437505583711
O           0.73887809239173    2.77822859912421   -2.08081254959046
H           0.88178786706088    2.28289449345481   -2.88158347520368
O          -0.08959118089807   -2.65440529426412    0.06893123933702
H          -0.33060506485326   -3.30387198782388    0.73217307032730
H          -0.83017889180298   -2.01053378890361    0.01256138798595
O          -1.85836443709658   -0.64722333438388    0.17382818563260
H          -1.46683142673246   -0.01497322253935   -0.49687267569881
H          -2.79852048311981   -0.66433697540620   -0.01276829986047
O           1.62691204179474   -0.86840007538346    0.78725491093444
H           1.09175339284098   -1.65993958831132    0.45037646778097
H           1.69668995720036   -0.19093179017602   -0.04207761286040
O          -0.13356035927741    0.40830807329392    2.03142805876461
H           0.97279434850152   -0.36127816694890    1.44350460817759
H           0.00337964443073    1.25843561582446    1.54761145122816
H          -0.93579769704973    0.02892482823676    1.63270155984257
