    19
        -40.92136407
S          -1.13549086287682   -0.28647674590774   -0.74154470787477
O          -2.21988374792969   -1.06367010658991   -0.19484038225066
O          -0.97337387605123    1.00745149264633   -0.05541860326804
O           0.12439227143030   -0.99163319743523   -0.81412488977635
O          -1.53375200401983    0.08579381814946   -2.23288950753914
H          -2.48626659147090    0.11444747249998   -2.22032471929211
O           2.24246026180995    0.08938034155969    0.28551887230833
H           1.65184583641272   -0.51718767049835   -0.21715764948961
H           2.20285731315242    0.91403697470790   -0.24746571169369
O           1.19996134773895    1.93636717458604   -1.32805761533917
H           0.33642018170780    1.75431830427027   -0.91170903651156
H           1.11362888237597    1.66918837200646   -2.24472787266058
O          -0.67570582831024   -1.82479297781861    1.80031562545423
H          -1.39250691419962   -1.62176809279496    1.15725970740165
H          -0.09853212740542   -2.44580320462376    1.34724214297565
O           0.44111644222959    0.46516337863149    1.94455040365501
H           0.05113529141497   -0.47147916009533    2.08310069209303
H           1.34906501353397    0.32943788921556    1.34796093011688
H          -0.19737089971412    0.85722593770254    1.24231233163433
