    19
        -40.92071445
S           1.32880789382037    0.16315726458066    0.63544039719446
O           0.31516237168669    1.18714616960310    0.74122702465433
O           1.56286670595845   -0.56387539178565    1.86186439748434
O           1.03003517783635   -0.74639908105579   -0.48846697475534
O           2.68883797181607    0.87414878850681    0.25946392435324
H           3.35581785195668    0.28942156673620    0.60812788477200
O           0.12470471482867    0.49868754921819   -2.68560012210639
H           0.22196879399238   -0.08094671154747   -3.44248696539650
H           0.60574051291194    0.07654055716286   -1.94626556648073
O          -0.99719296693533   -0.75071679468814    2.37705286149873
H          -1.20830772263792    0.17486413202138    2.53083680205377
H          -0.01182259393413   -0.78739528898921    2.35134951236285
O          -1.74817819569665    1.07958713192160   -0.88175983510200
H          -1.27744553097155    1.04701545858383   -1.74123305421998
H          -1.06013264688456    1.39965494693422   -0.25361466245434
O          -1.40478923393982   -1.23771431468329   -0.08307688932672
H          -1.72458050225027   -0.25867005564157   -0.46613485806367
H          -0.40601528153112   -1.21980230148915   -0.31928758909705
H          -1.39547732980870   -1.14470364527075    0.94256371256982
