    19
        -40.91990220
S           0.74191580343497    1.28409651955640   -0.29107739094240
O           0.74162105010271    0.11045149040869   -1.15032274992740
O          -0.33379859003131    1.16067775801528    0.71924986561821
O           2.01564488846835    1.56854256015670    0.30149620163833
O           0.32667825360727    2.50552542709191   -1.19890467082945
H          -0.35586883069050    2.17061844804658   -1.77680970833528
O          -0.98924688940086   -1.78697753746396   -0.67438911820902
H          -0.30087707258914   -1.21958264425626   -1.09390048974976
H          -1.79405072924527   -1.23563660489493   -0.73324263876145
O          -2.51930802924292    0.43798667906528   -0.57665606579004
H          -1.76774233675995    0.81242994919141   -0.06903809451876
H          -3.31608356020159    0.68176273161004   -0.10281795783947
O           2.40069813908043   -0.97066530675520    0.88463227500417
H           2.43827634045932    0.00743599665286    0.77713155620563
H           2.50010214067977   -1.32160668083233   -0.00549404762069
O          -0.04373365043364   -1.18074409846166    1.54392672384190
H           0.97522959761892   -1.24283536033071    1.39750837031638
H          -0.22117707874218   -0.17440834456310    1.38719682095260
H          -0.49827944610650   -1.60707098223639    0.66151111894743
