    19
        -40.91836651
S           1.81643065749685    0.67833119519528    0.36186676804756
O           1.92960061438566    0.58354968860593   -1.08189441652503
O           0.86076117857959    1.72861255769922    0.74790797667215
O           1.52731659594636   -0.58482280380857    1.00075837766174
O           3.21890342033851    1.15671607499127    0.90281949322936
H           3.39997165500313    1.91743384481123    0.35916922623062
O          -2.43717133703126   -0.49609463061833    1.07826512234704
H          -3.26565190520198   -0.83999647748675    0.73898612486424
H          -1.73909075486554   -1.15172152497281    0.85666941180649
O          -0.43351543954616   -2.01523079470927    0.15416570780872
H          -0.23980838620123   -2.92912323266266    0.36950746823134
H           0.33867751659039   -1.49045277695832    0.50676936514381
O          -1.35249968640026    1.40763711746945   -0.27924195708648
H          -1.84906568968440    0.78495015573155    0.34772535460763
H          -0.42104465054300    1.63781805007662    0.20184290469548
O          -0.39119155200292   -0.20961693194099   -1.93160735956095
H           0.54931253032763    0.07524083858196   -1.80656533135990
H          -0.46674718996860   -1.04705871205589   -1.44457199252630
H          -1.04518759721940    0.79382835204648   -1.08257224429664
