    19
        -40.91966047
S          -1.25648756877483    1.14759332470581    0.18923734492082
O          -0.63995040959497    1.62699054277644   -1.03816791275113
O          -2.06879373874640   -0.05114200458996   -0.06988386609304
O          -0.30983078539180    0.93063244613055    1.25505627684815
O          -2.26372248975645    2.25941395275109    0.66561062859947
H          -2.83648154724894    2.36605213228371   -0.08764133885968
O           0.90924145996835   -0.24055570353931   -1.85774840053701
H           0.34764239421596    0.54646340129297   -1.59743940496474
H           0.89577965208892   -0.27633742289478   -2.81605457061273
O           2.28672739319500    0.28692197469090    0.57993982320451
H           2.20682932131501    0.16762093363680   -0.37340530268810
H           1.53015455360465    0.83758735463330    0.84008702772804
O           0.77300517755960   -1.50479895988510    1.79376371572692
H           1.58626922247551   -1.05001252303139    1.46481535289331
H           0.22286309520937   -0.76333019596679    2.09639965343028
O          -0.42455725331830   -1.86723526744640   -0.36430702140526
H           0.09298008651219   -1.84449114607858    0.57802402786496
H          -1.22655744576887   -1.18071151025723   -0.23476779129539
H           0.17488887249340   -1.39066133922463   -1.02351824202229
