    19
        -40.91908964
S           0.51319333165441    1.07893547429057    0.15545355886153
O          -0.91945655817995    0.65758709778021    0.12577339371298
O           1.23186795109408    0.26145425306697    1.11389703896539
O           1.08248033411308    1.03924039165474   -1.16911217755190
O           0.51653838559385    2.55464638043346    0.63917378173422
H          -0.05176664912325    2.54051709198756    1.43726844761956
O          -1.43898707232878    2.01987383141749    2.32859517302094
H          -2.21067088603760    2.58250032050072    2.22988970232946
H          -1.48362016915111    1.35477447629654    1.61547126190197
O           0.99419022748294   -2.24600533043914    0.63358855392017
H           1.21271649713482   -1.29188438539078    0.84342604827713
H           0.84751956756159   -2.67279945759686    1.48041061610915
O           0.43702659188590   -0.84606526460271   -2.82398091854174
H           1.25255292550648   -1.32847825197128   -2.97880832060032
H           0.69663726157789   -0.02458160351627   -2.32998545062012
O          -0.94208432778385   -1.60959885959982   -0.85385149293481
H          -1.05842620110653   -0.63446989120847   -0.43798736081745
H          -0.47176714797858   -1.41283671151868   -1.75739453470844
H          -0.20794403184291   -2.02280957148831   -0.25182731075272
