    19
        -40.92267725
S           0.29727205494373   -0.61916041041953    0.81214148553765
O          -0.64007127730800    0.32627885545430    1.37467697855765
O          -0.35367659990295   -1.74860694985150    0.16487628535875
O           1.20439885016507    0.05518671493998   -0.14979113396732
O           1.20084613512874   -1.14735803038095    1.96084825271352
H           1.77604122251737   -1.80201360221744    1.50581797588655
O           2.19612996897734   -2.60353805024096    0.01923030032102
H           1.24673337972207   -2.68562979372072   -0.16550396560915
H           2.49702486538536   -1.85491123922175   -0.50564111554027
O          -0.87251046639300    2.78045436533352    0.52058151861604
H          -0.86840979467214    1.91256109635416    0.99485255712507
H          -0.21827554883856    3.32977912388906    0.95671480640721
O          -2.04933647687003   -0.28496253993492   -1.19724285423387
H          -2.64766215859905    0.02784383565014   -0.51308782403016
H          -1.49510347831155   -0.97628524041877   -0.76283414606563
O          -0.23738631500598    1.45954815176648   -1.55468745372659
H           0.50050236583969    0.86545872336478   -1.02086388358794
H          -1.03466531786760    0.80703142320231   -1.58702302879120
H          -0.50185142892758    2.15832358647747   -0.85306476498388
