    19
        -40.92136389
S          -0.18141245075674    1.01762194278789    0.92482671434158
O          -0.84901576586441    0.78566022524700    2.18160865120788
O           1.09499189617070    0.28750955103421    0.82681542379206
O          -1.00322872144923    0.77473160541434   -0.23925189579425
O           0.21916512950417    2.55334018528229    0.88606878681534
H           0.33677977790039    2.78747617118733    1.80236004071766
O          -0.12352737482679   -0.86048666170931   -2.08909175217550
H           0.69944785887998   -0.35402846179991   -2.26693080531361
H          -0.67295433624905   -0.20854159592974   -1.59697629267898
O          -1.74661210459542   -1.52432747897661    1.28725283163467
H          -1.47893687266805   -0.72176268797496    1.79017865901589
H          -2.41994155404466   -1.22300287267283    0.67085871246718
O           1.81234551119572    0.92559153442615   -1.68036280590895
H           1.55777026500836    1.84016987601298   -1.81395822943297
H           1.71239481105574    0.75436948524849   -0.72489078418560
O           0.42843682547525   -1.99973632197689    0.04140059313193
H           0.20497182919696   -1.65894243480674   -0.97353958081334
H           0.87623509994263   -1.16309981026906    0.43475125345843
H          -0.46690982386934   -2.01254224059455    0.53888048974536
