    19
        -40.91821038
S          -0.50588992064667   -1.25623015594006   -1.45222412194160
O          -1.60830683920422   -0.39812043227814   -1.04431848864819
O           0.64727524776402   -0.44490384855559   -1.87820950456919
O          -0.15621157809493   -2.24597425370043   -0.46644960327419
O          -0.97749826685312   -2.01844636467838   -2.75030362227816
H          -1.14281130025812   -1.30493089537266   -3.35912444833160
O          -1.35383716051606    0.67861756390619    1.26741859358363
H          -2.23872384795984    0.81519571790426    1.60995851076487
H          -1.48050364409443    0.26744334800591    0.36318394092289
O           1.95101684077099    0.46618208688758    0.00074686227511
H           1.50771472166566    1.35682531315019    0.19271390948731
H           1.46516118417534    0.08290540161418   -0.87579792987136
O           0.53859478599425    2.49590034549336    0.73389945955686
H           0.79365312261748    2.91647000232530    1.55716482674984
H          -0.25883419292895    1.95276470027343    0.92182886182614
O           0.77095384116084   -1.02078121058172    1.63552226000851
H           0.46918615020060   -1.68103021663201    0.96574889450366
H           1.59795896803106   -0.17880950705361    0.75940270771321
H          -0.01889809185698   -0.48307758475875    1.81883890149249
