    19
        -40.92343665
S          -0.61262946241393   -1.11677425973142    1.10561489454300
O           0.04554365988064   -2.03174574444817    0.19761046133242
O           0.22918340751596    0.01277681301771    1.46717764603562
O          -1.91292544643839   -0.68087724706804    0.59422919868333
O          -0.90300842485539   -1.89683743560340    2.44322107915092
H          -1.46581257083788   -2.60785340333106    2.15292697997109
O          -0.08203134376596    2.35402633839549    0.22522463645289
H          -0.04888710500826    1.65169297226522    0.90771013347633
H           0.82135536897003    2.42827806031251   -0.10165402688297
O           0.47678798021754   -0.59566518675824   -1.94617769529691
H           1.24687335182944   -0.11420495225076   -1.57782689158677
H           0.31585795865875   -1.31549136778346   -1.29049966807502
O           2.19270657557362    0.56142054601359   -0.23335368920475
H           1.57069122882433    0.29421624104715    0.47900954284910
H           3.02038918034689    0.11603237243579   -0.04720285495190
O          -1.44964425314485    0.84963764558134   -1.30617091507554
H          -1.80061348066880    0.22179146338421   -0.54708122131612
H          -0.98100784805050    1.60394444954272   -0.78888021926897
H          -0.66282878653903    0.26563268500981   -1.73387738087254
