    19
        -40.92025492
S           0.60186865588882    0.63172243412567    0.25397487565701
O           0.74983683839169   -0.50029769194169   -0.64762358033852
O          -0.45332692100297    1.53304983687572   -0.20499375201555
O           0.36889463682010    0.16749316461177    1.62510069490556
O           1.93642528176481    1.42852565694308    0.29610924206337
H           1.89174112030066    2.06473328138286   -0.45365928357074
O           0.43026703453851   -2.92220871105262    0.21993378705480
H           1.22366353260906   -3.18739692073897    0.68921003219487
H           0.64769848514086   -2.06294255462011   -0.22932311255945
O          -2.13836281941235   -0.44157054492226   -0.59098980423070
H          -1.69691398741122   -0.88191014970885   -1.32387881450664
H          -1.65177845305108    0.40776016958763   -0.47466252762573
O           1.14994837339935    3.09219808465191   -1.57731294054944
H           0.33787014322893    2.64344046889007   -1.26673189893953
H           1.07533864232098    4.01118228122401   -1.30948336922937
O          -1.31736905566426   -1.61695982510315    1.50197902962064
H          -0.61771689249184   -0.82754315491232    1.71044379281731
H          -1.83621465937280   -1.21428404648424    0.70559500976305
H          -0.70186996599743   -2.32499179881028    1.07631259948729
