    19
        -40.92343663
S          -1.01847871168226    0.36748521250048    1.29362876768038
O          -2.05434200324335   -0.23116273733717    0.45041216498923
O          -0.19464994278404   -0.63697599808803    1.93177782731428
O          -0.23431798638237    1.35191794660904    0.56476410752003
O          -1.77436049363825    1.15748454166680    2.42790179312081
H          -2.28235416334052    0.47520138623287    2.85573912195036
O          -0.89570062346048   -1.16835998892739   -1.53665115365544
H          -1.51712798233033   -0.84233928750651   -0.76145286202127
H          -0.54621551011337   -0.29080441638307   -1.94226060317185
O           2.19807517223762    0.56996506150051   -0.15606972797575
H           1.36594402889577    0.93281224607140    0.22035340356576
H           2.88692841907462    0.76194910893923    0.48159325259568
O           0.05628383046906    1.12886468049835   -2.07832868862182
H           1.01940435110228    1.09759975376219   -2.08293912798263
H          -0.18363026267512    1.45346789419557   -1.18544598166996
O           1.00129587382530   -1.83344608672966   -0.06379335955851
H           0.58385178518152   -1.58795310343652    0.79613146808605
H          -0.06897821988678   -1.58369393215385   -1.00092235144254
H           1.65837241872661   -1.12201228148330   -0.21443805076184
