    19
        -40.91039663
S           0.36548976657984   -1.30387333277223    1.38384973939954
O           0.53659531215743   -1.93189782839627    0.05582574731812
O           1.49824914685043   -0.45646519844761    1.69777076251224
O          -0.91770063854542   -0.65919651797362    1.49871698970348
O           0.38322011528205   -2.49740403069852    2.41276698506689
H           1.29122151619104   -2.78586890258160    2.40264403809075
O          -0.76757926566986    2.56835251000384   -1.32616010635397
H          -1.51980336642410    2.09599468687979   -0.95721272201729
H          -0.06549903655733    2.52846752755210   -0.66967848436888
O           1.54531837919531    1.32969117044372   -0.16929548852584
H           1.55356666204679    0.72149395930766    0.61623982363870
H           2.45935393140586    1.56134294971724   -0.34503059950083
O          -2.14970773692083    0.15390961093160   -0.63383591853791
H          -1.77853073113471   -0.10829325695960    0.24764270453147
H          -2.88010627696504   -0.44182740926053   -0.80937628882634
O           0.16655666471145   -0.23662619772837   -1.67119671397716
H          -0.80031122833992    0.01126236432629   -1.47457669122002
H           0.72209324146044    0.51598007043574   -1.27566806882680
H           0.35757357467841   -1.06504219477978   -0.98342570811100
