    19
        -40.92136328
S           0.21269372596703   -1.01704268876246    0.91718210527405
O          -0.88197782463889   -1.74362754792496    1.51112309605032
O           0.32203018391373   -1.25554734682983   -0.53273467271343
O           0.21291508277935    0.39949850824653    1.20625606868252
O           1.55169764269579   -1.60711088022079    1.53384572007752
H           1.32759667865558   -2.50446314091262    1.76351091601214
O           2.35282523705104    0.39682316597666   -1.12634938277554
H           1.71382831982205   -0.32806015957203   -0.99077052997138
H           2.97041224679671    0.34584975147816   -0.39489231987108
O           0.32742048093743    2.09573122467671   -0.78676213763598
H           1.17405202634357    1.74940462756141   -1.14566257628525
H           0.30783435417699    1.71199793970472    0.11986167110367
O          -2.56980987595059    0.08564951346182    0.64325449424858
H          -2.09801816856055   -0.69576262436606    1.01085666308755
H          -2.36652004283068    0.80858059804190    1.24337782282008
O          -1.28979388366344    0.37877851034495   -1.54509552244499
H          -0.65600852559869   -0.39600748115626   -1.31562067513781
H          -1.96287159704156    0.33409678332922   -0.77479534173487
H          -0.64830606144217    1.24121124705762   -1.33658538871471
