    19
        -40.91836654
S          -1.56126767987856   -1.05434451666619    0.58337309621305
O          -2.26489651620543    0.17780959919374    0.27841483467988
O          -0.86500437122944   -1.61562726679763   -0.55137335115983
O          -0.67860821495422   -0.88304039775001    1.74812995538941
O          -2.64952553929928   -2.10868123822101    1.02224754432408
H          -3.14593748852308   -1.62979790347720    1.67898000061092
O           2.70597079426902    0.05334708161457   -0.15535737266999
H           3.34876881578100    0.68747878841275   -0.47854806154418
H           2.07083717996937   -0.11322430367429   -0.88692234343244
O           0.91352130570242    0.97062501214767    1.45373836228171
H           1.70410892415958    0.56836528861729    0.96324601467444
H           0.25293415981988    0.15575286083267    1.67862171074399
O           0.71365693887158   -0.13358044829289   -1.93622669090521
H           0.10476715975548   -0.73803529851811   -1.42638398258325
H           0.74789079211000   -0.49584764575812   -2.82317407037300
O          -0.44276994219716    1.87895570490288   -0.44469170279879
H           0.37547386225626    1.49814917651639    0.71258845629781
H          -0.06074761740569    1.39979313027156   -1.19881929591813
H          -1.26917257299018    1.38190237627880   -0.21784309399131
