    19
        -40.90719774
S           0.69713093501085   -0.94102408172882    1.35544620733236
O           1.59042033101778    0.16885144616851    1.50699315731735
O          -0.65236686516336   -0.44032304407329    0.84343420014762
O           1.14283910073919   -2.06171981908322    0.59706165945194
O           0.32002353343723   -1.45499237880611    2.79416052848930
H           0.21174732688038   -0.68732738222068    3.35286876597226
O          -0.02069147778917   -2.47688011349330   -1.83873994799914
H           0.35853298271473   -2.47253457754622   -0.94003351791943
H           0.62580068421738   -2.91952080906157   -2.39211275922280
O          -1.75785125781248    2.06973566740242   -0.98835494912686
H          -2.45015533222253    1.72373454405042   -0.42234412242272
H          -1.03783685555657    2.34337840716773   -0.38434257499351
O           0.41711899374003    2.47571818060889    0.64191212864156
H           0.84159276533679    1.66795118003924    0.98305112590747
H           1.09273904803306    2.92223425803673    0.12745636709477
O          -0.02866956459501    0.14810083432202   -1.47740744202686
H          -0.18900744171927   -0.71733041570247   -1.90950121099719
H          -0.73387260373131    0.79574511430588   -1.69767973334832
H          -0.42749428254142   -0.14379702038081   -0.15186786228931
