    19
        -40.92139817
S          -0.37138185960407   -1.07040451536996    0.42901078283747
O           0.92178700039952   -1.08479333009698   -0.24825386526350
O          -0.40390177113104   -0.01213585688040    1.43682938337866
O          -1.47657756293727   -0.93867753642404   -0.51703899767340
O          -0.56659983623676   -2.43469769320738    1.15034341219232
H           0.19813617501478   -2.46725265465005    1.76097643827098
O           1.15311914269351    0.49702167833419   -2.29535180286085
H           1.14317335431164   -0.20341502942865   -1.59086012944287
H           1.83354116220859    1.12470188443648   -2.04174784924118
O           1.64080456384984   -1.61062683930838    2.32889036108854
H           1.13833582432795   -0.81062785945190    2.53033497749722
H           1.94234844278251   -1.49137172904679    1.41785591870774
O          -0.82891078105035    2.29959530324039    0.36638507526129
H          -1.56633336797118    2.69524706499190    0.83592035771933
H          -0.61828409137030    1.45405932590584    0.85272920122878
O          -1.24714919919158    1.13179300080081   -1.83802516208166
H          -1.46905293660719    0.20469168565239   -1.36472746928851
H          -1.13410424201573    1.75505544391688   -1.02328356502455
H          -0.28895000746572    0.96183764658038   -2.18998707731118
