    19
        -40.91966072
S           0.86939801007124    0.27429720814495    1.44971715733642
O           1.93402010956843    0.42814990963051    0.47038827268002
O           0.00186257491811    1.46223749489180    1.46686542541454
O           0.10948098754799   -0.93915760598476    1.27882549691752
O           1.54962299878136    0.21455879818670    2.86801122705808
H           2.03837273341765    1.03096906144640    2.90561688664847
O           0.79827337173103    0.62987065791609   -1.81632329688799
H           1.32247915947383    0.53541706874741   -0.96856254271703
H           1.28598468911393    1.24455878139735   -2.36778528302773
O          -2.23764715690493   -1.03193230503319   -0.09425416705371
H          -1.67798485502107   -1.55908528652790   -0.71533185973269
H          -1.77778121570113   -1.14465204498299    0.75397750692795
O          -0.07987726751410   -2.02005075467060   -1.25155109576025
H           0.24629472903433   -1.89014442088717   -0.34595628402640
H           0.33415775858832   -1.32733768630819   -1.77914434076014
O          -1.37269352475680    1.25874824943385   -0.57196371187540
H          -0.86203271991965    1.44609219151019    0.34232963954954
H          -0.61768279458891    1.07092681800286   -1.21657322650275
H          -1.86424759783596    0.31653387507949   -0.40828580419834
