    19
        -40.92085437
S           0.48174226193687    0.42318885044947   -1.27180130161542
O           0.39276059602086    1.23201147480133   -0.08126967843745
O           0.01028239486788   -1.01098045306510   -0.93105884491820
O          -0.22116335153471    0.93672941423915   -2.39991948058477
O           1.95955661245216    0.18054488396162   -1.62126708531115
H           2.33045515810345   -0.30005341445080   -0.82486680557229
O           0.63013424994087    0.03003824220683    2.18957388583047
H           0.93127552716221    0.60163058896858    2.89822393092538
H           0.53251411176500    0.60257263046977    1.39080004706794
O           2.45389421659903   -1.17781276025429    0.53673882502306
H           2.05876390811445   -2.01695368195364    0.28540735964327
H           1.88244911404223   -0.81467237951588    1.24500772726947
O          -2.51299570527133    1.17815702399749   -0.92315502211866
H          -3.24110015045514    0.98607547562772   -1.51910663485771
H          -1.72331155726406    1.27606103820228   -1.48042216349043
O          -1.78331560049315   -0.73831391695941    0.81055433886720
H          -2.18419785151269    0.04757105324974    0.38014302292920
H          -0.75561053357059   -1.00423682913049   -0.23522104456346
H          -1.24213341091636   -0.43155724082009    1.55163895392175
