    19
        -40.91907723
S          -1.15996077242806    1.08132217381134    0.51680544532643
O          -1.44063988701599   -0.33303336236299    0.60884611230202
O          -0.78442940532228    1.69695825586476    1.76809285702400
O          -0.16549591647363    1.35097725979005   -0.54329943042177
O          -2.48970705546049    1.78780046896600    0.02838846879667
H          -2.40924838736886    2.69503735166289    0.31099216124732
O          -0.88389338248255   -0.91441224175582   -1.90378672846479
H          -0.67536178566425    0.02246977748777   -2.01285001778690
H          -1.29411630563983   -0.94261164330391   -1.01667342808505
O           1.46726960126517   -1.88983918202844   -1.34295696165497
H           1.97400367273532   -1.97337031048884   -2.15272635600219
H           0.53207281794098   -1.65079153029968   -1.60981559779393
O           1.87819667232872    0.11830708085414    0.13480593556034
H           1.81284763286599   -0.73991398091818   -0.44907508423618
H           1.08942196777311    0.73307701162873   -0.20253910552196
O           0.71803278249248   -0.37919907566994    2.32249966744306
H           0.02678132682273   -1.00097905821557    2.06039768976979
H           1.56250590266268   -0.14031990288701    1.09170382408769
H           0.24172053100778    0.47852091782622    2.39119054842190
