    19
        -40.91984725
S          -0.18425890869754   -0.74635494404174    0.77116574391334
O           0.26910090332116   -1.31241600290799   -0.51506848270125
O           0.70429411811237    0.35343506692818    1.16301244927311
O          -1.56653476439583   -0.34467676910087    0.71475997185524
O          -0.04563684948960   -1.86806854883254    1.83437423486472
H           0.92092498097158   -1.93887035801454    1.99208513426803
O           0.55523823747415    2.09418556337309   -0.77250619774693
H           1.44115362231173    2.44583417647414   -0.88334302295407
H           0.58462012725553    1.52352266836583    0.03724719633172
O           2.49756563924443   -1.28090899917509    2.17094462936019
H           2.06682568565005   -0.49851747379303    1.77192873410140
H           2.72574369463908   -1.04108909536547    3.07210127989056
O          -2.74339912019385    0.34222958610589   -1.50661904824862
H          -3.10620163129172    1.21431433899745   -1.33572065159881
H          -2.45308075273700   -0.00800376874811   -0.62840383771432
O          -0.33176010797140    0.24435638785893   -2.29852418585246
H          -1.34857589867266    0.28916127103525   -2.15877617352004
H           0.04146076784086    1.07634180136153   -1.84832517620509
H          -0.02747974333260   -0.54447489052795   -1.58033258732019
