    19
        -40.91966052
S          -1.02913528158478    1.31257981206358    0.38876262083317
O          -0.55317495446567    0.95052619225835    1.71481591729481
O           0.00914974141178    2.04134713608341   -0.35651585008943
O          -1.53527411694763    0.18959583512541   -0.36079378871993
O          -2.21536185300261    2.32900724227397    0.58299130363724
H          -1.81510084697142    3.03198031951103    1.08549439524876
O           1.43994830025193   -0.62019538981658    1.37010283748078
H           2.10111298170493   -0.45861451287732    2.04578335941985
H           0.65900541979253   -0.03504919771438    1.59450193925416
O          -0.51566858323522   -2.31421553522145    0.17769391876238
H           0.20172566505771   -2.09524537342301    0.78342575369234
H          -1.12642416917152   -1.55963299078011    0.21086422858928
O          -0.02903527640786   -1.19076627942880   -2.16178031254710
H          -0.12476736886547   -1.89160533428027   -1.47141036521079
H          -0.80637087915703   -0.63000227153887   -2.00537578055123
O           1.62192938269345    0.30122695361124   -1.03264421383932
H           1.00247128248243   -0.35601868511829   -1.61461481949154
H           0.99265950773107    1.13337224310527   -0.82302562730368
H           1.72231104874271   -0.13829014382457   -0.12827553645025
