    19
        -40.91793140
S          -0.08479583657885    0.25951717817078    1.73553570701224
O           1.11349776120885   -0.15146137042493    2.43039722961455
O           0.15666989151300    1.42203663350108    0.86559400801726
O          -0.73249171882042   -0.81171905696060    1.00704400398580
O          -1.12043336402794    0.74983292034289    2.82519939954688
H          -0.61628793177903    1.33028856782706    3.38894696671905
O           1.85339593722126   -1.51286300142278    0.31749836757120
H           0.99737909710622   -1.95082119371493    0.24258251526816
H           1.82324240543364   -1.09995897953499    1.21030411623030
O          -0.27580876316337    0.23454877671175   -2.72535776385120
H          -0.48806428023845    1.03946331270205   -3.20218706949857
H          -1.05605504152535    0.04988163560232   -2.13384030429783
O          -2.22948328612091   -0.17817506412146   -1.03751930941583
H          -1.71930075445626   -0.35044625034195   -0.21053690399444
H          -2.81613545035007   -0.92947292374194   -1.14308709876792
O           1.54727371095087    0.63357350544204   -1.00398208580600
H           0.97977799660724    1.08624313271191   -0.21502526851462
H           1.80345337923121   -0.27552985672651   -0.59070044906154
H           0.86416624645822    0.45506202464555   -1.76086605063582
