    19
        -40.91892667
S           0.04599193076640    0.62158149018436    1.29168548748252
O          -1.20165941036305    0.11624711458290    0.77495921562933
O           0.75316743942414   -0.29085533941218    2.16427372168196
O           0.91453272413057    1.10069965948642    0.19996434036602
O          -0.30022437531157    1.90633265689098    2.14607381587953
H           0.47632368637047    2.05587005762527    2.67728653127324
O          -1.42665223283060   -0.69332434795348   -1.84258037915426
H          -1.53993674570577    0.27583755853251   -1.96885839100333
H          -1.71054710713259   -0.83097689638001   -0.92480985281745
O          -1.37688622420159    1.90942088228012   -1.23777760314485
H          -1.52270460518377    1.48210290644119   -0.37723664332282
H          -0.47342680895911    2.23650512156661   -1.19763953829121
O           1.16504046176984   -2.34931859533106    0.63359192134775
H           0.96301567119453   -1.64995855398235    1.30672351906657
H           1.98768932404814   -2.75967162713529    0.90910568269472
O           1.02884599474727   -0.80684485339585   -1.38122679781048
H           0.01084384343967   -0.83307775294004   -1.69686215783427
H           1.07367657960992    0.06171968435221   -0.78902171822037
H           1.13290985421104   -1.55228916536613   -0.68765113380643
