    19
        -40.91907719
S          -0.14768418052873   -0.44042870881889   -1.60189240286852
O           0.84450783363488    0.21498841471432   -2.42140290209961
O           0.39151097961348   -1.39975629373613   -0.66569436278810
O          -1.01523999520693    0.53665529800561   -0.91053518971419
O          -1.11008877939857   -1.23327619433719   -2.57703132643652
H          -1.16155629041697   -0.69929684423867   -3.36553792896179
O          -1.57955875742869   -1.25578360598817    1.08217346761325
H          -1.97715342845314   -0.60161010130844    0.49310533298296
H          -0.84149608749841   -1.60886220568738    0.54676667609864
O           0.44946886023548    1.67953130592785    0.73372198584114
H           0.21459171016619    1.17734217112041    1.61358833054977
H          -0.23522109009020    1.30784042744427    0.02144394782188
O          -0.25238526996515    0.28014042680896    2.71739967186836
H          -0.86028516780327    0.66033940799789    3.35411843303303
H          -0.76628739480993   -0.40719824801759    2.20125229734419
O           2.39499717513134    0.46206526138760   -0.32109674579447
H           2.24459546694700   -0.45324985423931   -0.05152474540910
H           2.05431953720583    0.48914382122139   -1.24327887948750
H           1.35296486865653    1.29141551179309    0.39442431039920
