    19
        -40.91907734
S          -1.55343161562299    0.44196013113355   -0.41583406654498
O          -1.21505174679365    0.33734621734427    0.98487512746451
O          -1.59752909514222    1.79497834193673   -0.91889643686124
O          -0.66954679966576   -0.41496374526503   -1.23456414014929
O          -3.00295392425088   -0.16953951290228   -0.59079667351192
H          -3.34324191360405    0.22059099112050   -1.39165863151068
O          -0.22272314370635   -2.10563690961775    0.86848651363373
H          -0.66636435566217   -1.30559359464617    1.21275807710471
H          -0.42163717354921   -2.06932223778675   -0.07632781013778
O           1.62762484268437    0.43946252110617   -0.84743400530129
H           1.99034148006478   -0.23690648350246   -0.14546555503087
H           0.68949361414192    0.05076222340264   -1.13460526801397
O           2.25403086156495   -1.29359366560636    0.88157418575059
H           1.33641551705943   -1.67599203820864    1.00297767337594
H           2.82352200864471   -2.01828282651922    0.61697474644811
O           0.58153722765875    2.35042416274975    0.43043187591988
H          -0.21625019948071    2.43855119472891   -0.13767769558087
H           0.24562174669160    1.91460964139382    1.22450377624633
H           1.36014262895078    1.30114558915222   -0.32932169330175
