    19
        -40.91790587
S           0.75443135708324   -0.13099800890191   -0.68219296375868
O           0.75768918538350   -0.01873189847748    0.75392143598945
O           0.34620368994717   -1.41187315379444   -1.18297393918476
O          -0.08605890640913    0.96973171590749   -1.30264076080357
O           2.18276059252634    0.20512758790829   -1.21366166058811
H           2.75152564522047   -0.50801106834717   -0.85515127775972
O          -1.75297144468608    0.47071596334189    1.72588977624590
H          -2.19899226727013   -0.05474767319991    1.03620354769661
H          -0.84569032058699    0.13026807537379    1.73657703851656
O           2.71886466262872   -1.95739060975677    0.17604323243217
H           2.03605262941642   -2.45095270609110   -0.29266249556683
H           2.29188486416502   -1.58756718795571    0.95669235162271
O          -2.26756027549667   -0.90453858501312   -0.57423406409358
H          -1.41226094039841   -1.28472491497491   -0.82761733756636
H          -2.55793322668400   -0.37812525481535   -1.32217382047180
O          -0.86394783385909    2.54603879793890    0.46684108335349
H          -1.35157154150802    1.85843401722661    1.01925576415742
H          -0.09954449305608    2.80838819213367    0.98617663348242
H          -0.40288138639563    1.69895670147933   -0.60429252370175
