    19
        -40.92158995
S           0.14939244304505    1.15439910335519   -0.90759774312149
O          -1.00332493198912    1.96100439673406   -1.20310217224963
O           0.56968245495990    1.27183229813165    0.49504208186273
O           0.04075592291342   -0.24428889955852   -1.29370730232690
O           1.34789559358338    1.72567674249415   -1.77282594390492
H           1.19530953917154    2.66553930853230   -1.79061442004733
O          -1.40959794848950   -1.44555345350865    0.59709851919379
H          -1.94683040219778   -0.65719575804712    0.84859402006952
H          -1.07911294601152   -1.21824886459774   -0.29426057685740
O           2.01338718240194   -1.78180218881494   -0.51834900488905
H           1.88446008441129   -2.66064911910397   -0.88068673604939
H           1.38898688646373   -1.18517466862355   -0.99455160867050
O          -2.26944687707456    1.02790295878672    0.94570550926151
H          -1.97812067123741    1.43352352106363    0.10575407168702
H          -1.79059294696247    1.49637948224382    1.63335264603304
O           0.82140130243564   -0.93948762301139    1.58184040629786
H          -0.16022245393257   -1.26943553259954    1.30861452560978
H           1.43488009749718   -1.38947762328546    0.90949868489850
H           0.79109769101525    0.05505591980401    1.23019504320059
