    19
        -40.92343660
S          -1.12327899902919   -1.15527604093601   -0.50018969504928
O           0.09072034892376   -1.82043054603423   -0.92280438614579
O          -1.36535066092924   -1.31999825650647    0.93396419870651
O          -1.15884345946048    0.24416503796130   -0.89443374746999
O          -2.33085412071716   -1.85182505271417   -1.23411976256180
H          -2.27363470221440   -2.75026519887018   -0.92419496046301
O           1.98780284611179   -0.54526231034609    0.34928993027853
H           1.98544940835784    0.23510537178427   -0.24362612212567
H           1.42680829555208   -1.20273547891933   -0.12717120364217
O           1.20210385389925    1.35966284716802   -1.37463495694859
H           1.49575627927804    1.30230909429543   -2.28481863074970
H           0.31502256089814    0.93793098945770   -1.34472777395154
O          -0.51301868114253    2.13824314943988    0.87105024721874
H          -1.00444342625028    1.57623039880051    0.23636132384537
H           0.20010986149575    2.53212569792009    0.35647009759384
O           0.32692859680113    0.07415776619306    2.10075234427477
H           1.14845591458667   -0.18934261049265    1.46915107410298
H           0.01754626712527    0.99897818446929    1.77618517425969
H          -0.42728018322210   -0.56377304264548    1.75749688884376
