    19
        -40.91790593
S          -0.21945107417502   -0.08172378741099    0.99875134843160
O           0.44506813005089   -1.32938203452092    1.24377734702789
O           0.55554876484004    0.87743800429708    0.25413761945575
O          -1.56016793690342   -0.32110994132716    0.32950766484034
O          -0.63894634608485    0.56071761420746    2.35774730411021
H           0.20644988019691    0.70213836139557    2.83302802792344
O           1.96844952899749    0.52173024089042    2.66637282250811
H           1.99596173404891   -0.42039458977986    2.46320577673940
H           2.09748855386621    0.97890647469308    1.82804258836741
O           0.10745315916009   -2.10847829967260   -1.35175587504232
H          -0.79190230328575   -2.44304941120417   -1.35466941338261
H           0.35438507701538   -2.00584391916823   -0.41961778016599
O           0.46355550476927    0.37133436353226   -2.43328268259407
H           0.84323948208595    0.68940454273659   -1.60029758152799
H           0.41290586329770   -0.59588751826348   -2.32074808013989
O          -1.83282876963811    1.22499717957812   -1.60854996459600
H          -1.64111881352879    2.11613615578029   -1.30529296742996
H          -1.01280370709375    0.92009054083824   -2.10884639632804
H          -1.75328673764065    0.34297599342310   -0.47150976821311
