    19
        -40.92343661
S          -1.63628907172937    0.40788588759152    0.03011889618793
O          -1.52700613965995   -0.18936502732863    1.34395550589110
O          -1.13702075921513    1.78358881534822    0.01245299305869
O          -1.01513446047387   -0.40323875833462   -1.00497442506144
O          -3.16728021125533    0.48960427837025   -0.33253307769317
H          -3.51647785941034    1.04677975817633    0.35604737482276
O           0.83256749184318   -2.11231456934815   -0.16074728997835
H           0.50044925355091   -2.98129342536788    0.06862270685638
H           0.05857830851419   -1.59756594552916   -0.47975914504199
O           1.33421586329535    1.64327247791006    0.22087131666885
H           0.31516523821068    1.86323026127271    0.14303560063961
H           1.53867706884772    1.16150174698952   -0.66356061009042
O           1.43811744964423    0.19346260678350   -1.86865121517832
H           0.47187427880756    0.03682508654634   -1.82403148123892
H           1.83953761519975   -0.65814082529397   -1.66355637229256
O           1.04971406471884   -0.27444721179965    1.78592136009587
H           1.34151033136057    0.87969550610376    0.96981439039391
H           0.06578176629015   -0.23618768030078    1.85327927645063
H           1.21301978147189   -1.05329298178510    1.21369420550870
