    19
        -40.92136409
S          -0.01562250751022   -0.84894030577888   -1.09621881390822
O          -0.60428578291202   -0.45273653327327   -2.35130750330228
O           1.09814547203064   -0.02888259470541   -0.67589676003637
O          -1.01643148673955   -0.96448193947927   -0.02083541809454
O           0.55120591029422   -2.31937549765014   -1.29053042123064
H          -0.01142902944529   -2.70005875823330   -1.95884373640975
O           1.04230936875607    1.04966759428633    1.71106316211603
H           0.95782738122306    0.19474798518702    2.18848134705621
H           1.33842482417714    0.76522853482758    0.81614860345808
O          -0.65605521213204    2.05475524101234   -1.54237238976234
H          -0.74297182989371    1.18287089370254   -1.99041341166531
H           0.27793564049925    2.27521736228197   -1.59825711844957
O           0.58574182077859   -1.55314123958949    2.05083445406118
H           1.27016014250315   -2.13227233900299    1.71121207417865
H          -0.08541133574009   -1.48594580306965    1.34562027819632
O          -1.25511306228639    1.37859686267529    0.84431807165912
H          -1.10170158346738    1.82907285366977   -0.06232066603080
H          -1.35225482983085    0.39229924832907    0.57576589068593
H          -0.28047391028130    1.36337843478109    1.34355232746459
