    19
        -40.91274130
S          -0.62131962636528    0.07684401297826    1.14964327023405
O           0.67858838383524    0.74726397475153    0.94849075966043
O          -1.69040932803816    0.91721001678497    0.64513071107334
O          -0.63170463264419   -1.26037910045342    0.60915802679466
O          -0.81444483799421   -0.05048739834329    2.70273304449270
H          -0.80664889680761    0.84007112548468    3.04189477248706
O           1.74500452542242   -1.56235327053004    2.09461467746662
H           0.91495694852551   -1.93315920413581    1.78166150241768
H           1.72403683878673   -0.63970124449413    1.82240374688477
O           0.56401777068612   -1.64125302734844   -1.68405421810320
H          -0.11983617264902   -1.89688804828748   -2.30719661566255
H           0.14815100297951   -1.66594927275614   -0.78779765052033
O          -1.29918609063528    1.57559859798717   -1.81933624309342
H          -1.53496584079541    2.50117246135927   -1.91155560136321
H          -1.57605598606207    1.30933077340477   -0.89978318866437
O           1.08811326066450    0.81783921161247   -1.49137001125557
H           1.01054863004739   -0.19646253066632   -1.69581133554460
H           0.17452398464688    1.21362033687175   -1.76462060351134
H           1.04663005639275    0.84768259577805   -0.43420502377160
