    19
        -40.91790586
S           0.52573237170305   -0.85342567887274   -0.22617828370042
O          -0.66924790938882   -0.63182749979701    0.54717964049548
O           0.33403543387792   -0.82374798111500   -1.64770871991948
O           1.61401503894753    0.12297605478382    0.17996772250441
O           1.14276661431951   -2.22577107145849    0.18746051289425
H           0.47508408811238   -2.88768072896860   -0.08944919189236
O          -1.13567268427263   -3.04600942401738   -0.82821522916130
H          -0.96460854407894   -2.56568417504446   -1.64656557378489
H          -1.62991599286379   -2.44199777829693   -0.26307675721796
O          -1.26304572333326    2.03223836283098    0.73537493040246
H          -0.91840352868733    2.24483191067924   -0.15166529189036
H          -1.44234270934435    1.08043461083873    0.70082494493956
O           0.07084514609681    1.89340872026741   -1.64030391657847
H           0.98266691893478    2.19206613995348   -1.62890506993872
H           0.09971823996276    0.94653664917165   -1.84775777057652
O           0.85223596511648    1.49388034900935    2.11906690364474
H           0.52812703190702    0.89458698127104    2.79629498032214
H           1.36437371070493    0.69947393670578    1.03207323254599
H           0.03363651228798    1.87571062207073    1.67158292692214
