    19
        -40.91793138
S          -0.47210797981777    1.14508755395238   -1.24559021670465
O           0.21308358348795    0.93508611140645   -2.50011195725783
O          -1.38919897169643    0.03808780946569   -0.92914810038029
O           0.41608363606737    1.42044351973970   -0.13520715070665
O          -1.38813034351872    2.42290758696089   -1.41342698467473
H          -1.84197784098228    2.28387084585887   -2.24027200212908
O           0.00753107565822   -1.72229784427280    2.14312900422392
H          -0.13441749895080   -0.74290212418547    2.25852840824936
H          -0.76242710312393   -2.14950325929882    2.52388408764586
O          -0.41876443911005    0.85408899792928    2.27405266619464
H          -0.19028935758061    1.12130400236622    1.35198754699187
H           0.11420329676992    1.40946128832469    2.84617560483666
O           1.97513857249784   -0.56331624213709   -1.26844789631161
H           2.12413604852622    0.09686713683060   -0.58122618719526
H           1.47330669080095   -0.06990101992509   -1.95608758569900
O           0.01078188653948   -1.91079494094398   -0.38880701635815
H          -0.68679402821975   -1.13813425317547   -0.64607330924030
H           0.89990472812456   -1.52374304281004   -0.73890482835229
H           0.04993803460775   -1.90661211612002    0.64554589694159
