    19
        -40.91907730
S          -0.62325375105822    0.06210648858952    1.54539105982163
O          -1.46474765780357    0.46549770570072    0.44240388602251
O          -0.90080810425925   -1.26074875096545    2.05412232729605
O           0.80551830630032    0.22508771204155    1.20237262065988
O          -0.88537416533209    1.08235107110802    2.72706429666967
H          -0.62829004150564    0.61811351889196    3.51941565150742
O           0.99957093961050    0.56599469426680   -2.49128375475087
H           0.65770595306312    1.27998444178659   -1.87823678785751
H           1.80226295855803    0.90507553907182   -2.89153253890178
O           1.19317804516325   -1.25556253761243   -0.75007633907738
H           1.15297160528616   -0.58044836886961   -1.53980671327818
H           1.14999186289125   -0.65591002639805    0.11767559903051
O           0.22913214969201    2.19570246195161   -0.60775693693172
H           0.82933897167760    1.94773882401189    0.10745091007228
H          -0.60893951833029    1.76641624320561   -0.34522300709503
O          -1.14858995844980   -2.13693576815341   -0.40535661838001
H           0.27677679512615   -1.74730726457825   -0.72408466815709
H          -1.13883562380189   -2.09340811016893    0.57694350327029
H          -1.69760876682351   -1.38374786389024   -0.65948250992291
