    19
        -40.91790580
S          -0.39640158713413   -0.76438377475292   -0.55684991351657
O          -0.34054153671107   -0.12417197307114   -1.83942754042977
O           0.81081232967034   -0.65914737293095    0.22209043701174
O          -1.58862810833309   -0.25829273571415    0.23393937181550
O          -0.74144910205232   -2.27501364553899   -0.74337545925645
H          -0.00173410218428   -2.63087779911614   -1.27884451792113
O          -0.52758949402450    2.35023933811055   -0.69874138495684
H          -1.47154560852985    2.44271788169397   -0.55304379912106
H          -0.41862544621155    1.58392810737494   -1.28290667597806
O           0.96849353537345    1.75320112014546    1.50404611305733
H           1.30095636959932    0.95247140713038    1.07107649496026
H           0.51508947965259    2.24109368098483    0.79194971092408
O           1.54109866482858   -2.17327108470473   -2.03797017089333
H           1.97681652505035   -1.76913831768565   -1.27945289345251
H           1.22270563995920   -1.44387640560580   -2.58221402796158
O          -0.88906258667168    0.29944127048756    2.56217159387621
H          -0.19221119214713    0.98110861186016    2.30671447263782
H          -1.36203045260129   -0.05309432087173    1.24703453586602
H          -0.40615331748000   -0.45293397784550    2.91380365343905
