    19
        -40.91790592
S          -0.18387890491510   -0.26587629606438   -0.97350242374302
O          -1.02231899060915   -0.24167317865580    0.19765342913045
O           0.04534266740005    1.01689494339414   -1.57361757087776
O           1.13640095846116   -0.95045027070508   -0.67178687415792
O          -0.82114494106877   -1.22663223617027   -2.02532698491701
H          -1.66852536692478   -0.79744364844398   -2.26687871772800
O           0.39095110779811    0.47954331227353    2.42673476843723
H          -0.38650576118401    0.39730657204337    1.85402745892101
H           0.98404533494734    1.08285966757478    1.94199466979579
O           1.75941954511169    1.73497041271651    0.42738884941467
H           1.16831025793657    1.68697482572068   -0.33987712716497
H           2.58212342627816    1.32178146975587    0.15685389544811
O          -2.69317938190869    0.61091757551176   -1.90448285810349
H          -2.74074532768283    0.53046159609601   -0.94544076913100
H          -2.04865648566863    1.30569392250836   -2.08195019547549
O           1.10468018034759   -1.87822584452997    1.64315753056318
H           1.16244328183994   -1.40849697539813    0.28190679660665
H           0.92942910586219   -1.00241316213864    2.10997306414145
H           0.30180931420755   -2.39619268574706    1.74317303844359
