    19
        -40.91908980
S           0.35353209371034   -0.26458845793908   -1.12233449752665
O           1.09625597234805   -0.25068856367108    0.17345208945612
O          -0.84207574099182   -1.07298667763582   -0.97894641498111
O           0.08345985183105    1.08032827209598   -1.56761782624598
O           1.30183346478538   -0.93437879873814   -2.15357483429612
H           1.60144122956712   -1.74997008399522   -1.70060289299726
O          -0.55006885441175    2.92571534357982    0.13631365489432
H          -0.23102763671978    2.34569876043492   -0.60391240198695
H          -1.44773595781531    3.17622479392409   -0.09433960518524
O          -2.32912718906036   -0.29600433852949    0.95952716523803
H          -1.85834929861617   -0.61264214474088    0.13462823041667
H          -2.61768955340843   -1.08903772334666    1.41623579362542
O           2.12811089770853   -2.63314298205970   -0.31092101438932
H           3.07944924348173   -2.64733254115034   -0.18234987020283
H           1.79362699126923   -1.84294964625387    0.15449252502948
O          -0.32125768761243    1.00614357869278    1.75815780513435
H           0.37944115010751    0.46513800124804    1.16349162829683
H          -0.41472538393724    1.89822718509883    1.23719352023610
H          -1.20509357221926    0.49624601297279    1.58110694547577
