    19
        -40.92037972
S           0.80436141633597    0.01393030825603   -0.71745148528876
O          -0.35875422351431   -0.86665160339767   -1.13833241493926
O           0.30426902575577    1.33855915025985   -0.38827834089847
O           1.57497362294176   -0.60160979952713    0.31535272754722
O           1.65796465979201    0.12237998899902   -1.99812043567546
H           1.18516238620900    0.76537904391219   -2.58432992067427
O          -1.22936097044652    0.97569119414352    1.78142678850950
H          -1.91595581691309    1.64556650118890    1.76886130226929
H          -0.60320216280713    1.20649776376481    1.06816134134030
O           0.24085213661560    2.09931642374404   -2.91957796568885
H           0.72822676360089    2.91066912436095   -3.08251199828007
H           0.02463912229772    2.08223055850236   -1.96839513671098
O           0.63473191608164   -2.39788184397288    2.08637701311155
H           0.81259626851922   -2.02091787392902    2.95070314992300
H           1.14186034791561   -1.86108399399618    1.44931678241061
O          -1.57401568127983   -1.52390374330163    0.91361523339446
H          -0.94038138877734   -1.20682575685985   -0.29244704335090
H          -0.87800762467602   -2.03358460835168    1.39643683090677
H          -1.60995977766260   -0.64776082377696    1.35919358210777
