    19
        -40.91940439
S           0.83305434370965    0.65528406300614   -0.13211396055096
O          -0.09902345223150    0.86088053071237    0.98226591535977
O           1.40738522011010   -0.67371996982059   -0.10988123776457
O           0.17673425164826    0.93461105551407   -1.41361505356555
O           1.96872642978376    1.70918924874771    0.00446724636614
H           2.23045084843842    1.64500525507041    0.94709397602205
O           0.07393519511487   -2.57661416157571   -1.22733505726625
H           0.64327450334880   -2.92739710830667   -1.91555153781659
H           0.63620092835747   -1.93958211416408   -0.70552872301632
O           1.90802144641695    1.36933121645253    2.61463805822392
H           1.72334518110837    2.13675215196092    3.16127513888379
H           1.04828963736574    1.05200178365796    2.27626013754379
O          -2.45124442874901   -0.12675266344147    0.46020355334786
H          -1.57225112105856    0.21889172880550    0.76628787332422
H          -3.06129303444351    0.61191803477381    0.51379955262291
O          -1.56302984878570   -0.75896624848742   -1.82773334319079
H          -2.08100887036840   -0.59781431123592   -0.95421761537040
H          -0.82857689497433    0.01841740626897   -1.77860103743024
H          -0.99299034455487   -1.61143591826065   -1.66171388547491
