    19
        -40.90719773
S          -0.64175885166850    0.66162329701039   -1.53620397669948
O          -0.42152642218353   -0.65586519481745   -2.05435553802088
O          -1.00177279842796    0.57070709757855   -0.05430897056156
O           0.36620005420987    1.64473797440432   -1.75357797748581
O          -1.98250387905544    1.20435175166993   -2.15598065421772
H          -2.59961317598595    0.47532976509497   -2.18558283738777
O          -0.61067562457657   -2.51774761373041   -0.06842625027806
H          -0.56883514076258   -1.87063829220136   -0.79544047878529
H           0.12668678612139   -3.11412522072228   -0.21378108886358
O           1.82070063874899    2.45662191787699    0.41086687109762
H           1.27506400202950    2.31366177919152   -0.38498423971194
H           2.68357823913303    2.72612469229460    0.09010093516396
O          -0.36876327434937   -1.47064296189177    2.46089847001551
H          -1.17234430576035   -0.97149548182943    2.61728818895991
H          -0.51895865456140   -1.95336711911429    1.62269968979073
O           1.19864369138748   -0.07733046153320    0.87255967587677
H          -0.08628606369293    0.26210625782222    0.38834819826594
H           1.57708700420741    0.81459386948861    1.02291667429013
H           0.92507776518747   -0.49864606659063    1.71696332855342
