    19
        -40.91966038
S          -0.14312572542261   -0.94522355658239   -1.42038632247275
O          -1.55741851001041   -0.58799955770292   -1.22984973394848
O           0.61024962726649    0.18940687354169   -1.93123043644525
O           0.42864968915373   -1.51700763884053   -0.22647370293988
O          -0.12437833889039   -2.05525399637174   -2.53622405988394
H          -0.51159319565110   -1.61225265358717   -3.28497708729910
O           1.89037496393681    0.13011226101865    1.43560829638215
H           1.73198015578898    0.99084422384646    1.03126103221140
H           1.71150498769372   -0.52370899943011    0.74000489774460
O          -0.41070238790426   -0.85765171276656    2.27433781744120
H          -0.30775826852511   -1.54468065918819    1.59511004838965
H           0.48875776119936   -0.44971401223491    2.30715966741039
O           0.46922614708496    2.02400095113981   -0.14971647580737
H           0.59397468791928    1.35603880698465   -0.88509492116159
H           0.41505387933126    2.88321518048760   -0.57234370784581
O          -1.58192562339816    0.79230806086432    0.81531426126455
H          -1.16592357049327    0.11394982654651    1.53867106459320
H          -0.83185716098148    1.41759856555830    0.55556490525451
H          -1.70508913809782    0.19601803671649   -0.05673553288734
