    19
        -40.91120568
S          -1.16938935867118    0.15453744219809   -0.25736105820826
O          -1.15147380441735   -0.17126888506252   -1.67075162916117
O          -0.82517086427888   -1.02157212661916    0.54882589648924
O          -0.36201515879988    1.30345586117711    0.08260994746040
O          -2.66744910625069    0.51387509877567    0.09775704120363
H          -3.17731587463393   -0.13775638074107   -0.37448207920323
O           1.19498855334774   -1.12735300356121   -2.21089047561542
H           1.07201136345168   -1.86615961500086   -2.81082708165718
H           0.30153645757949   -0.70231631013492   -2.10951917002439
O          -1.49674231440810    1.43709910006422    2.60156259591790
H          -1.03674599910523    1.50792386720657    1.75635151667465
H          -2.40961341841152    1.24274432840185    2.38347282817089
O           2.16658515525604    0.96748283946509    0.72110963018768
H           1.22900396892913    1.24580146701747    0.60191557045273
H           2.67457099418586    1.43350731321267    0.05319893869934
O           1.58251338587226   -1.45151779325906    0.27456252007567
H           0.54374421850737   -1.36185471916517    0.51255468672128
H           1.56511068980801   -1.43363746832611   -0.75196214897226
H           1.96585113207140   -0.53299100566995    0.55187246079251
