    19
        -40.92218957
S           0.22450236446063   -0.95974701314689   -0.60675996451468
O           1.60812757807059   -0.59038484356937   -0.30833562744817
O          -0.52716756937168   -1.23612645738186    0.61332631627693
O          -0.43794511286663    0.06343197260147   -1.40916414920010
O           0.29078863168556   -2.26938375745580   -1.44557107220385
H          -0.65637444387522   -2.45951628677280   -1.60908383657981
O          -2.31584824413918   -1.92529390154113   -1.33694753585535
H          -2.18268433593237   -1.86230580202671   -0.38179751184299
H          -2.13170470737819   -1.03726726953703   -1.67051504148211
O           0.14412193610954    2.49257663215444   -0.71426619154938
H           0.54577299442755    2.90616129910031   -1.48143185280627
H          -0.17964218180305    1.60244983795230   -1.01942471026220
O           0.00207279792136    0.38268082754307    2.56825199849805
H           0.33950921111390   -0.15810590790892    3.28562433751612
H          -0.30498990181868   -0.25196970310986    1.86599471478904
O           1.66905453698977    1.48525524426836    1.02679478783657
H           1.02989530818291    1.16534214462106    1.77570488056552
H           1.79243948281992    0.59463239131973    0.46011366516558
H           1.09007163541473    2.05757056287918    0.38748682308319
