    19
        -40.91940431
S           0.96086580995276    0.42630107387945    0.18973637707939
O           0.59119321530004   -0.22218961775866    1.43039100786521
O           0.76032833039307   -0.45785106319158   -0.96404296802248
O           0.23507097206902    1.68755150527522    0.00663268127138
O           2.46879301239622    0.80429985171906    0.23589947942050
H           2.92573728345869   -0.05617039098479    0.12649676967834
O           3.06178197901824   -1.65470005225289   -0.49477525788075
H           2.13251883362635   -1.50677259686805   -0.75743438239976
H           3.56230555930280   -1.77308611599666   -1.30554363080551
O          -1.88634690975900   -0.13750617577949    2.13950668198108
H          -1.90107388097021    0.30151051369384    2.99262897388701
H          -0.92458231961164   -0.29605036662364    1.92974649014268
O          -1.72420435564247   -0.46640046960932   -1.74345347146577
H          -0.77404435128930   -0.57179127207106   -1.47527127036212
H          -1.71227537380065   -0.16643526782468   -2.65479809785273
O          -2.18854525753447    1.25209018171586    0.06045697193938
H          -2.22883833344085    0.70280856799494    0.94110462415640
H          -1.16828626072476    1.57616063962112    0.04115933076762
H          -2.19039794279920    0.55823104498122   -0.69844030941574
