    19
        -40.92129512
S           0.42361662731420    0.17115147264375    1.11114350177230
O          -0.69932512243659    0.89726047354540    0.46185011085707
O           0.14654516904669   -1.26093410117772    1.06057863483481
O           1.68538997084215    0.54122941861400    0.52634661969009
O           0.42620466174602    0.62206482702465    2.59871368432396
H          -0.44767087807952    0.32091065982632    2.92598042077221
O          -1.95764860991275   -0.49330119258931    2.54457181555832
H          -2.25710637462734    0.12943034373426    1.87345186852326
H          -1.40655242906162   -1.13781634550600    2.07157969703321
O           1.87777289374700    1.39608020761767   -1.92827058365886
H           1.98256990746671    1.04500367410961   -1.00895029316917
H           2.02933827504099    2.34196651356254   -1.87188704501689
O          -0.07239606614509   -1.92165244080831   -1.45090353774487
H          -0.73690457954883   -2.61165177181967   -1.50404512050615
H           0.10812933094828   -1.77725048058820   -0.48744763194553
O          -0.49919024541800    0.53238891228328   -1.95927913272717
H          -0.67609692170732    0.76540596763604   -0.91359424714518
H           0.44348529275531    0.92214418688002   -2.11848458566643
H          -0.37016088196964   -0.48243031499066   -1.93135416578484
