    19
        -40.92079064
S           1.06030418426207   -1.04108441151953   -0.00118746255583
O           1.35644691542745    0.11983164695159   -0.84322039658705
O           1.76162009473935   -1.00481459368940    1.25603281923537
O          -0.37619418305521   -1.24711443350216    0.12078188784124
O           1.58952195741198   -2.30125788287461   -0.79912605145211
H           2.53581315811175   -2.20008537980447   -0.76864552791761
O          -0.64702174157644    1.48739905564024   -1.33463056233479
H           0.28541316005720    1.01290338427954   -1.20357806030022
H          -1.18793568143522    0.76226576154422   -1.79490542667076
O           0.97537952876454    1.30992395342804    2.26110649470086
H           1.13136122707880    1.28877291155812    3.20718427145045
H           1.36525132381126    0.48383396080581    1.90147628664025
O          -1.77794833563253   -0.70156799664417   -2.02775754397710
H          -2.69966473518983   -0.89111740831474   -1.84147330681894
H          -1.25441680742816   -1.10115318781771   -1.29347875080387
O          -1.33971442535974    1.06898145576308    1.02324763804526
H          -1.01411792714239    1.48800264581332   -0.33359232009216
H          -1.18652393278395    0.11128350706589    0.89236991801859
H          -0.57757381003457    1.35499701133843    1.57939609358365
