    19
        -40.92071447
S           0.13363306415279    1.04089102941959   -1.04618129768455
O           0.92386062237603    2.20489636192201   -0.71751081524110
O           0.89102383644278   -0.18775145401637   -1.10810426289711
O          -1.02090458077034    0.89199844170670   -0.13799282117225
O          -0.48113651028302    1.29568077240852   -2.47929962040855
H          -0.58742190675495    2.24197831311269   -2.51724205543554
O           2.24581081739959    0.92410601389706    1.14438878887097
H           1.85837415154943    1.56383671757201    0.50127346981634
H           2.72744216794141    0.28970222075592    0.60538375743517
O           0.16236186580962   -2.18814485700391    0.43252033579214
H          -0.77794215663735   -2.26430492222883    0.16540009675803
H           0.56584755073061   -1.65691072484354   -0.29216859004097
O          -2.27840090872854   -1.46758416280105   -0.35680495773557
H          -1.91930244421615   -0.55911802322046   -0.40105182358460
H          -3.15360285110952   -1.39812139208574    0.02737447669589
O           0.06978326307962   -0.17161079707199    1.86501780531476
H           1.00271351928056    0.25063085748840    1.75433360163485
H          -0.49334720442470    0.34545101313144    1.17985011945633
H           0.13120770410632   -1.15562541840939    1.38081378251053
