    19
        -40.92218951
S           0.66462617298408    0.73851972308351    0.59430917231606
O           0.59363028268579    1.06949488166435   -0.82539211542257
O          -0.67069560404419    0.60825249590019    1.16842116469672
O           1.46266906310661   -0.46615250212428    0.82160360531166
O           1.39993442867556    1.89753118640754    1.32843698913574
H           0.82043200866318    2.66442502923699    1.13831596706703
O           0.32627165239504   -0.98846915996673   -2.37939963751366
H           0.37522632022253   -0.13784542807177   -1.86521253587899
H           1.08980531987302   -0.99157288845184   -2.96073304095699
O          -1.73019252699552   -1.73693633514663    0.85371361081668
H          -1.89811353584544   -2.07999751001948    1.73407131832415
H          -1.43124349132860   -0.79584491722931    0.97742257058717
O          -0.64877167538674    3.21329707739355    0.33068943131738
H          -1.19063715424673    2.53635076406151    0.75728392684600
H          -0.38100093314529    2.82051852216668   -0.51083334031314
O           0.41688043308522   -2.40529566565720   -0.29265624828159
H           0.97281711018570   -1.66712428464738    0.23186168956985
H          -0.52073884547382   -2.29790083326581    0.13278388579273
H           0.34910096457244   -1.98125016532613   -1.23468639345979
