    19
        -40.92136407
S          -0.76424291616714   -0.69181593848302   -0.92777606786018
O          -0.99648256953260   -0.83742561673559    0.52008038045713
O          -1.87868233824953   -0.07243505445152   -1.60108464395049
O           0.51093322182744   -0.06047881902949   -1.18279759015919
O          -0.65336274745725   -2.17694048005496   -1.47830452956704
H          -1.54696782077174   -2.40428844980372   -1.71927059395200
O           1.97484122509174    0.69769217422277    0.85385290039523
H           2.03283795677631   -0.19768424738929    1.25484274064211
H           1.66963901020787    0.50165133820534   -0.06142497416965
O          -1.05626252098976    2.29802200980272   -0.79628087160946
H          -0.29096994822507    2.41976098432197   -1.36519530700607
H          -1.52043063466360    1.50695963302255   -1.15312373723554
O           1.36687205177209   -1.86197708890064    1.27563946584527
H           0.43837433844090   -1.63067075773524    1.08416066131312
H           1.63949825461095   -2.46288418426761    0.58012237569590
O          -0.32421441943416    1.38485377323581    1.47112847897894
H           0.74437216667911    1.19889905067095    1.32296738541662
H          -0.63113625672710    1.93039437088183    0.66057961419073
H          -0.71461605321676    0.45836730246090    1.26188431258916
