    19
        -40.92343618
S          -0.08893949703535    1.45259393241616   -0.85305600238732
O          -1.49156693644946    1.09525370348346   -0.86439376313195
O           0.31196766288779    2.04962934154030    0.42162653737954
O           0.77374245063230    0.34092429076273   -1.22076215019493
O           0.12903275325777    2.56242059551526   -1.94986865171052
H          -0.45424249861131    3.25793661793568   -1.66255117000500
O           1.99157623755100   -1.08079521758988    0.68125567628291
H           1.81652748175453   -0.49643278297240   -0.08557556716984
H           1.62543859643584   -1.93670589234645    0.43255214588769
O          -0.27409295967603   -2.07573786088782   -0.89010879597877
H           0.08249539530078   -1.19954369553767   -1.15642667171230
H          -0.73698111438740   -2.42050523339247   -1.65489894005192
O          -1.68657725980227   -0.75509258607279    0.97463025514268
H          -1.30733790443644   -1.47070346873561    0.42265075764695
H          -1.83843982482325   -0.02059536797744    0.33316281814492
O           0.31722115873974    0.21411664920950    2.09478621168344
H           1.07393238774654   -0.35662215130116    1.69738523087840
H           0.34611826484490    1.08474325686488    1.51637220059948
H          -0.58987437392991   -0.24488412091398    1.76321987869646
