    19
        -40.91907727
S          -0.80835034359813    1.45336622680609   -0.11383055890923
O          -0.75814181224596    2.18178637660758    1.13219106499919
O           0.46831102338789    1.31630101266704   -0.77617152977874
O          -1.45796657306655    0.13563536618972    0.05151838958174
O          -1.75436264397535    2.26281127368054   -1.09140936101402
H          -2.42449151966206    2.64487406454405   -0.53068954530354
O           1.44751107186155    0.91363272843933    1.76751699691111
H           1.82659313641520    1.05314804348044    0.88998991902361
H           0.68302971329731    1.53185960020030    1.78865418137667
O           1.17189207265849   -2.43596518896078   -0.46452537307353
H           0.76737322809725   -1.88921620754429   -1.19959718914197
H           0.91607658915988   -3.34640469074228   -0.62310660715820
O          -0.12578662488751   -0.88372637712386   -2.10805478271984
H          -0.98611290713658   -0.83419940421418   -1.67100920000095
H           0.27955797817913   -0.02322792370757   -1.88331017836993
O           0.09485108500447   -1.19621162962007    1.45605310388828
H          -0.66231049149480   -0.69331797430131    0.92037521543819
H           0.58524750184535   -1.77224441806751    0.74237533417317
H           0.73707951629081   -0.41890087837711    1.71303011011351
