    19
        -40.92025503
S          -0.47589932719568    0.35710460922005    0.68767419464187
O           0.88734208220674   -0.14901829772604    0.64723608801834
O          -0.65894907652311    1.44751433335780   -0.26821719774933
O          -1.43322660446451   -0.73164911627110    0.46816587734326
O          -0.77516875341418    0.90492464194286    2.11179176629422
H          -0.46308593823105    1.83832834820700    2.11017703068693
O           1.35192831770597   -2.63421454215412    0.07321603603815
H           1.31924395126718   -1.68738008785953    0.37268201774168
H           1.17289286489129   -3.16715398459532    0.85028997671435
O           0.49598169897675    0.10404931983163   -2.20479930104786
H           1.39421146175503    0.07590647437894   -1.86076315588998
H           0.01575974077132    0.72666625009156   -1.61031580531563
O          -0.10462749859586    3.35540302458824    1.44598988760430
H          -0.80738311540702    4.00733243523021    1.50003168510515
H          -0.23011676779606    2.87827003916988    0.60114163068714
O          -0.59781125668929   -2.05032224457639   -1.43039944973707
H           0.19366492671720   -2.48048354600167   -0.93101046831762
H          -1.10335627665626   -1.54302266939949   -0.62762859049773
H          -0.18140042933394   -1.25225498741182   -1.93526221232947
