    19
        -40.91898898
S          -0.91878602022094    0.09463595651974    0.59790876844780
O          -1.62724808310057   -0.42530513630325   -0.57388936472502
O          -0.03576553047183   -0.89806469043724    1.17391531724766
O          -0.18189262581914    1.31992260142132    0.25712346205965
O          -2.01462542186065    0.47950246667692    1.63069312399976
H          -1.54210382176481    1.04047934555632    2.28136446744534
O          -0.35344375231409    2.20145470278980    2.73404099311665
H          -0.02467217252354    2.03275404383316    1.82928774646330
H          -0.64353116187371    3.11645825482041    2.75619943427143
O           1.10334850358284   -2.68578053565490   -0.29712483241235
H           2.04438135608403   -2.54784190273139   -0.16769831198779
H           0.64791326658664   -2.11572020140727    0.38012854781684
O           1.29045987138925    0.79538509707547   -1.81271529994684
H           1.15596784478369    1.51949969190904   -2.42790799968713
H           0.80195020812906    1.04718118633762   -0.98311435571044
O           0.01010971256254   -1.37278983336989   -2.14875038432870
H           0.49136094432082   -2.03612621028693   -1.50944447525839
H          -0.80725457098493   -1.02856965340022   -1.54645608005622
H           0.60383144348554   -0.53707519333350   -2.17356077675019
