    19
        -40.91103771
S           0.80701427852114    0.76460388873846    1.04774002282957
O           1.89210285425018   -0.13632777425334    1.38042877666575
O           0.83666280670991    1.08977973864536   -0.39446767101819
O          -0.49103186510708    0.28811946489591    1.45211309395935
O           1.06687540836905    2.12269087606073    1.79052571280109
H           1.93115930030192    2.39232122575446    1.49386701754144
O          -1.62979733333941    2.25520170467384   -1.07859651292774
H          -0.72710686299124    2.01264197297630   -0.83708654310612
H          -2.18000109965904    1.49299269991344   -0.88226019198030
O           1.29292482218341   -2.30015350059204    0.11070689842280
H           2.11651795713447   -2.73102329584937   -0.12937985105954
H           1.54096665315372   -1.53957079473247    0.70481304971516
O          -2.16086412288452   -0.65315059527495   -0.27318566962365
H          -2.62117087121802   -1.40408178413155    0.10680341457930
H          -1.64146172177172   -0.23783727662131    0.46624324671725
O           0.00642425442848   -0.91738736656173   -1.56406501345020
H           0.39963987343963    0.00433805932186   -1.20405208439521
H           0.51782972773667   -1.60660770602014   -0.98766460526968
H          -0.95668402929550   -0.89654954695529   -1.20248312040519
