    19
        -40.91941577
S           0.78045948159805    0.81907699551693   -1.15804326530128
O           0.42511941715515    1.90475777044954   -0.23601088853251
O           1.73982246515954   -0.08429297147625   -0.54909583026779
O          -0.38528390643651    0.14090092227789   -1.67849395333793
O           1.49334772718741    1.50632424745198   -2.38243185007410
H           2.25558688487425    1.91538739233008   -1.98461217454104
O          -0.73811015622286    0.89813256430101    1.70478292112566
H          -0.02456040927460    0.13477138594830    1.93456437404836
H          -0.24490337917111    1.45141272955907    0.95725141879631
O           1.01285097250648   -0.86487264330846    1.89780362924736
H           0.60758758741042   -1.66622689699356    1.51259764221158
H           1.56289999786587   -0.52955764465279    1.15860619869862
O           0.10275352673668   -2.30404478083085   -0.16698377909924
H           0.70982773534817   -1.67559144661665   -0.58693599343612
H          -0.73214838436254   -2.21475289020213   -0.63103520087515
O          -2.33094544709943   -0.15198904564907    0.01210009872358
H          -1.49101790177794    0.44603430946024    1.18494405336666
H          -3.09111676424522    0.35389433092487   -0.28084713200578
H          -1.65216946725932   -0.07936433847605   -0.70816025872363
