    19
        -40.91687434
S           0.04521469081774    0.91752378493689   -1.55710356650359
O           1.37770651609411    1.07171339525315   -0.98837198234134
O          -0.20577469066085   -0.46473328900818   -1.94430049290295
O          -0.99316389333510    1.45833770783608   -0.70720025645413
O           0.02699421687091    1.76443668098346   -2.89413309599285
H           0.68604923070162    1.30810180195708   -3.40637357919213
O           2.10987849609035   -0.64655789865121    0.74250494712602
H           1.85276048430399   -0.01493203929571    0.00314564061792
H           2.74323509253134   -0.16563051978774    1.27985058613171
O          -0.92204841248379    1.32748794108761    1.84194746935063
H          -0.89818308005298    1.47788222745654    0.85181694254276
H          -1.83395879996302    1.47646768348488    2.10106427399263
O          -1.37677072872620   -1.88810368004691   -0.18463905021589
H          -0.99876714466172   -1.29773659120078   -0.90507175021147
H          -1.18246830526283   -2.78665262836185   -0.46027435617660
O          -0.12037104273301   -1.05454932974397    1.82335501222821
H           0.84424204642461   -0.94151827692705    1.43562805037621
H          -0.47587837442160   -0.07894243709976    1.93022205856129
H          -0.67869629153406   -1.46259454287228    1.03793314906388
