    19
        -40.92136404
S          -0.84495592499770   -0.59534972108182   -0.92424160775601
O          -0.67288197675938   -1.15187986388893    0.42921011993124
O          -2.18286767509749   -0.10708618800417   -1.14926238698752
O           0.19596671195954    0.36237680380445   -1.22255410299161
O          -0.62565868076363   -1.82423668168731   -1.90536581031815
H          -1.49860730028722   -2.18812322099314   -2.02268678038193
O          -1.60115929382967    2.10794499691852    0.15398533367598
H          -1.03943822149373    2.54760908659719   -0.49039506616888
H          -1.99804602016106    1.34606613112454   -0.32621991549879
O           1.97728043016256    0.90496517359805    0.61980997682303
H           2.28790926756901   -0.02272587931466    0.71369902931642
H           1.48665452562741    0.87948523740548   -0.23361996437525
O           1.94398818462675   -1.74677763060838    0.36283622159272
H           2.12848148811613   -2.07014377919228   -0.52065534249018
H           0.97200653418903   -1.70054139351859    0.43590655113709
O          -0.17042308616279    0.85206181189004    1.85331170709725
H          -0.43720642338058   -0.05650094232040    1.45637264492964
H           0.84116824680537    0.96683851384053    1.44915354888361
H          -0.76221078615321    1.49601756544840    1.32071584360646
