    19
        -40.91908971
S          -1.04431593489550    0.35744637648829    0.48749525033754
O          -1.21033871840761    0.72439508114636   -0.90593555751498
O          -0.30461481878796   -0.93724497400631    0.57066753883831
O          -0.38248793143831    1.37247509518557    1.26988198971521
O          -2.44012114968642    0.09597708657695    1.11589328396359
H          -2.74560594689527   -0.72388134224307    0.67494927087033
O           2.20332197822650    1.49889217345456    1.33215513508842
H           2.41898658337022    2.33939553290808    0.92138423819124
H           1.21969336877342    1.50759363362797    1.46968396148684
O          -2.49605626272203   -2.30727328703727    0.02649396198535
H          -2.63940643309935   -3.02267846497678    0.65046034188096
H          -1.55823626485161   -2.04822148064574    0.10660422548132
O           1.01353954125164    0.81330205421009   -2.17753441600107
H           0.11428163315971    0.88789836043684   -1.74357097644686
H           0.86088422210096    0.38669589934981   -3.02337352378518
O           1.98396905892336   -0.46728753078055   -0.23301914716688
H           1.72100306958653    0.01357916473960   -1.11203530818976
H           2.24525089599489    0.29315828016437    0.42307224568811
H           1.04025310940721   -0.78422163859261    0.14672747560380
