    19
        -40.91821036
S           1.33117791406826   -1.22364131289043    0.82039615826940
O           2.02620343482256   -0.21241326979764    0.00545479053748
O           0.47448334201083   -0.58116622192969    1.80596166292622
O           0.64715107491725   -2.20747610571319    0.02178326385375
O           2.47105072003235   -1.96404223149396    1.62099020296347
H           2.89880215735413   -1.24675528476408    2.07882142622364
O          -1.72454115358014    0.36679436063007    0.89271791865935
H          -0.87497844622033    0.00133207643402    1.27677680336014
H          -2.36090595768186    0.33557584414814    1.60902722216974
O          -0.79410825754927    2.49656339711440   -0.43668889640014
H          -1.52405921090026    2.90050522472225   -0.90973235113252
H          -1.17826781828546    1.82072480667779    0.16486802346127
O           0.60740945412224    0.77326026774959   -1.74800497097950
H           1.30608394949941    0.37413265355129   -1.03744626706177
H           0.17363114762015    1.56613219685889   -1.29032932209604
O          -1.14391468522753   -0.98872859810433   -1.42334851535257
H          -0.54396791817742   -1.64388182474501   -0.99180825902046
H          -1.64682055048319   -0.59863684769856   -0.68752172371123
H          -0.14442918639536    0.03172085924706   -1.77191715657090
