    19
        -40.92315434
S          -1.45610004818342    0.62145442888183   -0.61298277566166
O          -0.43749920136707   -0.03521302749529   -1.43458883803685
O          -2.05332647489220   -0.34311041564707    0.31435358081103
O          -0.95062232451151    1.80538439204994    0.02820608429404
O          -2.62393983602719    1.05078195319735   -1.57835093408753
H          -3.11092844716536    0.24000591439215   -1.68845975704982
O           0.94138707601007   -2.05218440111212   -0.39751373519251
H           0.36556797143045   -1.47435521192846   -0.94504316939160
H           1.82407562359252   -1.67629572632893   -0.48217034550353
O          -0.20097395349039   -1.22694703312868    1.71787750817816
H           0.31272869952160   -1.71758210855948    0.97364135872365
H          -1.07689097872023   -0.92483956642881    1.23540974563347
O           2.02314087811674    0.66081815782030   -0.71495048044322
H           2.34292579184646    1.46136879145210   -1.13329372163250
H           1.12523390512632    0.50191643871174   -1.08221918718193
O           0.90880404530200    1.00489703133727    1.69744563701543
H           0.17814225480395    1.50131087723647    1.26337804621130
H           0.31797110307314   -0.30309016248609    1.85981543444376
H           1.57030391463216    0.90567966835151    0.97944553940499
