    19
        -40.92174064
S          -0.66659258251953   -0.59596161346201   -0.07126625611373
O           0.46451847802937   -0.63517770127338   -1.08251423640183
O          -0.20549788854459   -1.08375457502345    1.21135667218788
O          -1.26497786269028    0.70614279745545   -0.03411912098341
O          -1.69182777438767   -1.60025001772961   -0.64095497856482
H          -1.34776418686479   -2.49990699153492   -0.40379951352861
O          -0.51972014604707   -3.61539068395264    0.50187218786533
H          -0.14776230942516   -2.85698981667635    0.98912465837169
H          -1.03467664473614   -4.12660504172843    1.13132864507999
O          -0.23448431568600    2.80914744882744   -1.36153395687003
H          -0.61770286913273    2.84614249187153   -2.23944265763434
H          -0.74954074665107    2.14718799879012   -0.86242761154854
O           0.99349427304779    1.27556018322714    1.78123761411422
H           0.22986293976277    1.85864913912214    1.77662267311647
H           0.63674435279168    0.37208478402254    1.79252944048300
O           1.89239247693067    1.34796920727735   -0.71708441950509
H           1.15744927194076    0.19550946451568   -0.97286252984304
H           1.29280792608759    2.04909925856152   -1.06231742959279
H           1.81327758809353    1.40654366770257    0.26425082936924
