    19
        -40.92267744
S          -0.66080294274224    0.63394517708726   -0.54307174183062
O          -1.53862724922235   -0.50573877778686   -0.76449493845556
O          -0.33558938077230    0.74326654290864    0.90076980473182
O           0.54820460331345    0.57690210098054   -1.33295535576571
O          -1.42157503282517    1.93699528682685   -0.91544252253914
H          -2.23586131304224    1.88111188667121   -0.36775042118495
O           0.35266537437874   -2.30445788419814   -0.53118708212520
H          -0.46763263938778   -1.76858160632858   -0.65087403022634
H           0.85802359978729   -2.17922518007030   -1.33921532811967
O           2.92370772508687    0.35147385114162   -0.27877372460622
H           3.24564431147588    1.22219239881822   -0.03746773249574
H           2.11280852873396    0.49624185489771   -0.82641388811620
O          -3.16250376260247    0.97457600117384    0.79477189903189
H          -2.94788411066223    0.17214241308385    0.29273074908282
H          -2.55316226874243    0.98242451610395    1.54003554545836
O           1.41628439455968   -0.92569610172796    1.31750843490127
H           1.05156709255838   -1.63862108265782    0.66766513590450
H           2.18121092492037   -0.47444715210407    0.80527851545751
H           0.63352215517510   -0.17450427481455    1.26888668090818
