    19
        -40.92343492
S           0.01929207125690   -0.43694767317982   -1.62917269813811
O           0.40024285070347    0.87511303989686   -1.13079927210857
O           0.85124128879489   -1.49653370354085   -1.09962287487740
O          -1.40407252694900   -0.70333536296073   -1.41747458780389
O           0.23645009322087   -0.39664749120745   -3.18906659021765
H          -0.00686922667328   -1.27723893917145   -3.45740066871817
O           1.74988514311147    0.88179466591507    1.15521847282463
H           2.70248139564453    0.84444362598718    1.05911989318712
H           1.38190645491697    0.90137267914066    0.24422452555989
O           0.40322713812981   -1.42037637536747    1.47696329493798
H           0.62198346663356   -1.67361732499713    0.54852831319206
H           0.96896884217818   -0.63768085727410    1.64389221245511
O          -0.95711757404412    1.97446807363234    0.88711156655094
H          -0.20517054355097    2.08560182894882    1.47935783005331
H          -0.56399915458425    1.79931470106245    0.00681463811984
O          -1.82860195298673   -0.41373036455584    1.01210525335604
H          -0.94185004017584   -0.91096435874829    1.34240041729316
H          -1.62368676798471    0.59054302330390    1.08708180718350
H          -1.80431095764245   -0.58557916687757   -0.01928153279288
