    19
        -40.91274029
S          -0.69367655279854   -1.02709744251972   -0.41884580937204
O          -1.92164577614701   -0.27303535062629   -0.58452964291723
O           0.36936916215393   -0.44182410925837   -1.25956538354192
O          -0.28183023274673   -1.16927534261167    0.95614582806676
O          -0.95046224030088   -2.47242937074192   -0.97618793553473
H          -1.23858717910838   -2.35888742546170   -1.87744502562607
O           1.97070397578712   -2.44483168244550   -0.15759679645049
H           1.30378346409035   -2.39706671125807    0.53338501341356
H           1.70808666906753   -1.78158549044416   -0.80323625115538
O          -1.56498033358941    2.23899739174792   -0.11025700557354
H          -2.05050235859915    2.73045031247546   -0.77617427913321
H          -1.81690005250979    1.28276794337242   -0.23285119547742
O           1.12387238828536    0.77349918683988    1.99712428541151
H           0.67320181948581   -0.06181647454364    1.72154040285953
H           0.58511226584793    1.15487694954708    2.69397558921245
O           0.91106838502837    1.77687257697248   -0.30643124151220
H           1.14020764397540    1.48366590846061    0.66221047518009
H           0.78905347398411    0.85303091466065   -0.80875688535762
H          -0.05587453186786    2.13368820584942   -0.25250414248988
