    19
        -40.92139823
S          -1.08620641197552    0.52719987859329    0.09819003036543
O          -0.91644105722834   -0.33330234247180   -1.06861040281981
O          -1.22539419111048   -0.24882072192284    1.32789312621499
O           0.01982955879845    1.47873678493517    0.19151031491296
O          -2.40682594781744    1.33211608399976   -0.06902786442121
H          -2.25492602443923    1.82507869272721   -0.90130039615950
O           0.52842315081369   -2.46166125189427   -0.71194250740994
H          -0.10935880289993   -1.73216233390448   -0.93178700346723
H           1.28493225878676   -2.34106493378887   -1.29029333737472
O           2.13189927703267    0.37975122267231    1.19283227141697
H           1.37641107307585    0.86722578000328    0.75994874138315
H           2.41931556451555    0.93474891254537    1.92101590138840
O          -1.11037992118812    2.13498664422336   -2.21768285739126
H          -1.00899710590572    1.18635573017584   -2.37456769821786
H          -0.40354396038905    2.36089517448826   -1.59893616962529
O           0.75101697221173   -1.68268198510669    1.67906408922760
H          -0.16399845040474   -1.14027604886683    1.65411399873252
H           0.73249435257169   -2.16451083186531    0.76341500389968
H           1.44174969555204   -0.92261443453676    1.57616474934303
