    19
        -40.92021799
S           0.89333622844138    0.45296579878264   -0.34495588344638
O           0.29755216446737    1.19894217473207    0.74962777794202
O           0.90359747306888   -1.02396474646534    0.00299404274239
O           0.29408055485459    0.67478044543863   -1.62274731056756
O           2.39289439334701    0.81516590102688   -0.42137314546420
H           2.69669005532532    0.89489560939418    0.51696358962302
O          -1.54685420268646   -0.96848807771563   -2.68403361667745
H          -1.11600466257249   -1.41802398396076   -3.41344165843686
H          -0.95276580428833   -0.23951765251825   -2.42221972580336
O          -2.17687975577886    0.23905407501725    1.16825871182733
H          -1.34338062700640    0.72309443442015    1.01322586044777
H          -2.31732283310866    0.23009538619240    2.11698577429105
O           2.53816791183759    1.25509896229009    2.13969145241177
H           1.58250199683653    1.29353397761365    1.94430954696552
H           2.80995568586299    2.14285635680318    2.38539662895134
O          -1.39453367357933   -1.89210658071576   -0.21121137465767
H          -1.59702249121506   -1.68696375244584   -1.15742707767319
H          -0.08841024498613   -1.47938397612840   -0.07512771639452
H          -1.87560217881585   -1.21203435179036    0.31508413391338
