    19
        -40.92218947
S           0.11144480527946    0.66958519778177   -0.93722554666636
O          -1.34973979747902    0.67614629831453   -0.86608184330149
O           0.70481422781089    1.27737118665121    0.24943970307394
O           0.62736324884481   -0.67920721559591   -1.14798401199046
O           0.49442153332155    1.53647128578130   -2.17210446828008
H           1.47309101035175    1.49096730328137   -2.16245535615644
O          -0.49453631763508    0.65409005486013    2.46211388032283
H           0.06091902766459    0.90703683061308    1.67619679822509
H          -0.79905464211805    1.47817043490831    2.84822415623507
O          -0.62923724107982   -2.51489991166561    0.18418830927204
H          -0.05488564722357   -1.88038672010040   -0.32338178113526
H          -0.99382416926169   -3.12033040376953   -0.46499386162333
O           2.89160662985945    0.84474625382336   -1.33595229246460
H           2.60197862355837    1.18648451459686   -0.47972232380753
H           2.55181053892118   -0.05937377265083   -1.36829546980313
O          -2.11751539971317   -0.67128560276393    1.05445554417387
H          -1.54473080794743   -0.19502065441698    1.77301907210013
H          -1.93190531690993   -0.06562868019751    0.20073181698409
H          -1.60202031625357   -1.53493641943573    0.80982766483060
