    19
        -40.91865346
S          -0.74431289012353    0.29297895400775   -0.60576189708636
O          -1.13682582033684   -1.05525454074601   -0.34362828135092
O          -0.92347440362336    1.23064509693378    0.47803573470062
O           0.72230985743158    0.33755533630435   -1.03957293948865
O          -1.53356764516374    0.81579640301627   -1.83239655363535
H          -1.45720567284614    1.80464681312244   -1.82429232415434
O          -1.25985989850657    3.31038715853014   -1.14428435902645
H          -1.01750335658227    2.84377664084082   -0.32407574959372
H          -2.06660170950739    3.79821873901045   -0.96007976266290
O           2.13094309062620   -1.78563592154009    1.43227737952621
H           2.83103708395959   -1.14496323963890    1.56719887796285
H           1.32498594154729   -1.40715605348554    1.84683394460717
O          -0.17843885055210   -0.68043889534641    2.28187696685522
H          -0.39225887096846    0.15304879787363    1.83559483753204
H          -0.82566922247246   -1.30959254387159    1.94979167205292
O           1.32031570316267   -2.08262939899032   -1.06196777193087
H           0.40235201187518   -2.35741290963963   -0.93883793499360
H           1.06915850562010   -0.64318837039397   -1.15502902522162
H           1.73461612647539   -2.12078205596504   -0.16168281405330
