    19
        -40.92136375
S          -0.86555819795130   -1.05261144804300   -0.25176922099125
O          -1.13352926011128   -0.07783878714639    0.82063539264575
O          -1.84842985106546   -0.99108067227540   -1.30468476942060
O           0.50257294025097   -0.95277014159273   -0.70757693673406
O          -1.00962454966423   -2.47451889627863    0.44025079372436
H          -1.92853810769426   -2.69962295906918    0.32563677441077
O          -0.63180274067813    1.11496473889328   -2.32085349873905
H          -1.22374128246379    0.37080076102358   -2.06755329875833
H           0.14672825507639    0.69969768449811   -2.70238576922917
O           2.06014173476107    0.86475426748906    0.35749331756264
H           1.95650361547828    0.53533996433859    1.27751308289083
H           1.73299205795039    0.10601456511471   -0.17792681904978
O           1.00693941459563   -0.51345344345594    2.38053358277489
H           0.13497411679079   -0.38285300562989    1.96233404974902
H           1.17377590291921   -1.45723679812133    2.35582983394569
O          -0.08693320650803    2.04599400915838   -0.00776276663997
H           0.93341691276473    1.68790472279386    0.16343914846945
H          -0.28700088227442    1.86869106927126   -0.99599029660768
H          -0.63288685216288    1.30782435905928    0.45283740002703
