    19
        -40.92315429
S           1.40325732870944    0.52809470204555   -0.79649679144726
O           1.88042609059738    0.75659355495048    0.56996328886282
O           0.85409967051216   -0.82368974412041   -0.91805844390627
O           0.48125703866546    1.52836928496216   -1.26322725423965
O           2.68929847234035    0.58932007659891   -1.70326673437735
H           3.35133290532258    0.18332297354054   -1.15232918602843
O          -1.79815328270824   -0.81205868985997   -1.07247907761578
H          -2.13910480749894   -0.70155705656822   -1.96119119699673
H          -0.81888365236041   -0.82574163706544   -1.15685481672832
O          -0.30588228591925   -1.93119784864102    1.19698770097705
H          -1.17919862427210   -2.07625426761779    0.81773267658210
H           0.27113956354424   -1.71519370128302    0.43175909038740
O          -0.07648389780934    0.44429169579357    2.07181008303079
H          -0.21736939997747   -0.56125210224339    1.90590494913670
H           0.81813286190904    0.63964498738038    1.56915582426362
O          -1.58172850004320    1.44482868892341    0.35551987536962
H          -1.95246919217740    0.65232029052328   -0.08886961900003
H          -0.80112341652353    0.93743237117698    1.45937872311275
H          -0.87854688380984    1.74272641708554   -0.26543909274317
