    19
        -40.91941583
S          -0.15216499168979   -0.83266252888491    1.37977614997940
O           1.26121519102278   -0.55533799090436    1.19878071808602
O          -0.88857400229730    0.39400146614121    1.70850499308649
O          -0.73861067344712   -1.53905532761245    0.26314032832644
O          -0.28996557726364   -1.77092644616803    2.63677619968246
H           0.12614596465500   -1.26541001438087    3.32808509541427
O           1.70579087246809    1.50793671711388   -0.43496897168989
H           1.80356173861894    0.88494030734085   -1.18139013249758
H           1.76251465052584    0.91527125736637    0.34412270317652
O          -0.74668751631181    1.90835825093979   -0.24600416217269
H           0.31267411133739    1.87342562233183   -0.39256108445957
H          -0.86792664941607    1.37883871960299    0.65558923040890
O           1.45010026027573   -0.90850788574602   -1.55653999625804
H           1.44042968273063   -1.10422596709256   -0.60708756365398
H           0.65925768875053   -1.31427296566672   -1.91750653296929
O          -1.68319285807334   -0.02544017308793   -1.62005865181984
H          -1.15658296965746    1.27364290216029   -0.93208114764234
H          -1.36352981810868   -0.68651221605584   -0.95253631117453
H          -2.63445510411553   -0.13406373739408   -1.67404088383139
