    19
        -40.91941577
S          -0.30126746277690   -1.52912268940767    0.43810330142012
O           0.83337778309475   -1.20440094439781    1.31117135487541
O          -1.46869484341232   -0.74227955096544    0.79188535041703
O           0.04270875558929   -1.43431389776349   -0.96281771126275
O          -0.64801802684175   -3.03885643749080    0.72173066863327
H          -0.88218997823553   -3.03518569765500    1.64462843268384
O           1.45971147549530    1.15444412379489    0.89089135029049
H           0.48918730065831    1.59321644582725    0.99185945421900
H           1.28870646481457    0.15728119323579    1.18181614630203
O          -1.56104928530768    0.95885168349735   -1.41089593267259
H          -0.97164736738218    0.66882383278874   -2.11010493056961
H          -1.70501739344174    0.18473530521479   -0.84539271436908
O          -0.92651406941300    1.86057915154836    1.02794982890752
H          -1.20372191330697    1.99442437121144    0.10063018208245
H          -1.27571529850054    0.96612407366621    1.22649755369530
O           1.65683508487648    0.50442435742170   -1.56738836595657
H           1.04900879610239   -0.26903874615649   -1.43686249536674
H           1.63649819058575    1.06535195857757   -0.11031801096236
H           2.48780176736543    0.14494146707535   -1.88338346242205
