    19
        -40.92135392
S           0.23541074511661   -1.29120547802016    0.84528352555822
O          -0.98950425879450   -1.70935868899480    0.16203632134541
O           1.40277338968011   -1.43960191304250    0.00435701867177
O           0.10145837710992    0.04189147349503    1.41099720599570
O           0.41390445064491   -2.26771757853305    2.07197791656860
H           0.58818694480668   -3.10488221082136    1.65306946905655
O          -1.89279359888281    1.50210225100012    0.46783404067107
H          -1.15606902514927    1.05892527553535    0.94686008006433
H          -2.68992618665840    1.32979128818949    0.97232988936362
O           0.98324768111804    0.31316374156276   -1.89724178936344
H           1.26839566655729   -0.46176535322664   -1.35769115561834
H           1.25820249075748    1.08233236320379   -1.34320608452700
O           1.68358662663424    1.82076812899928    0.15757863169648
H           2.59540579375102    1.68694112512647    0.42206330670334
H           1.14441591184781    1.24742884774312    0.73667634919181
O          -1.45209468523112    0.02346001605097   -1.56507016137284
H          -1.72433142628030    0.75229944941797   -0.90871170792955
H          -0.41173073199472    0.21788792652595   -1.83744451177956
H          -1.35853819499916   -0.80246068421956   -0.94169831435279
