    19
        -40.92135384
S          -0.50031872343283   -0.48786059441505   -1.39621046682522
O          -1.52125208727759   -1.13545041331031   -0.57169073401064
O          -0.78461334810499    0.91421083416367   -1.61001333621969
O           0.83626211247247   -0.72965919182778   -0.87623223356253
O          -0.55281217829257   -1.19506448035890   -2.80596992843285
H          -1.39283785638949   -0.91189936778864   -3.15366916272155
O           0.96691451148706   -1.57436332236469    1.62769194483895
H           0.90425165258490   -2.53100943902847    1.65235826927184
H           1.06713834533830   -1.32409488642748    0.68120831260992
O          -0.54742274626834    1.93075759451688    0.79291678731470
H           0.43913096040351    1.94198586792356    0.76651133592133
H          -0.79218597920997    1.73488347016656   -0.14236819732075
O           1.96277427183122    1.52127597303572    0.07388311287843
H           2.23741417654814    2.08011239439086   -0.65518780139042
H           1.68917391622648    0.67083341696537   -0.32189952951159
O          -1.21609625091497   -0.25660392321904    1.73789256389538
H          -0.34481995731838   -0.75002807659132    1.92079444525487
H          -0.94603762199187    0.76392177023319    1.45412092233899
H          -1.50466317784278   -0.66194762623249    0.82586370570723
