    19
        -40.92343668
S          -1.00870079294644   -1.27329172625075   -0.45444267278652
O          -1.59049486299176   -1.08546490425912    0.87547297200298
O          -1.46990310803381   -0.27122717718354   -1.39149068355818
O           0.44192288262128   -1.36063629171662   -0.39960682556477
O          -1.51644399611107   -2.67475346299339   -0.96441200687889
H          -2.46266112700464   -2.56845828716134   -0.96165474880607
O           1.74701425086611    0.80140801162830   -1.21835909691964
H           1.96392561603079    0.80972051926341   -2.15159458791892
H           1.29730022595569   -0.05568645374791   -1.04831570054408
O           1.77319113571080   -0.13208882971643    1.56030572192875
H           2.32830148122796    0.41408513527214    0.99281237585895
H           1.39742125143190   -0.81547611921841    0.96716425087188
O          -0.51954283816716    0.93785461663478    1.83846042034275
H           0.44529382042499    0.58931579124171    1.90030132254512
H          -1.06354096712006    0.08731696074753    1.56570693660279
O          -0.53667415433388    1.97451314804246   -0.42756593301341
H           0.38053021983443    1.83286245151006   -0.74260683838527
H          -1.05232728126639    1.26761969902862   -0.88409580126068
H          -0.55461175612892    1.52238691887936    0.94392091548340
