    19
        -40.91892649
S          -1.17401566561483   -0.07547049737399   -0.81943785366907
O          -0.68611701542335   -1.26878611613869   -0.10292356422431
O          -2.23517065203210    0.58117422374667   -0.08673333385519
O          -0.07922919901827    0.78472318276883   -1.19472321146478
O          -1.80673857674716   -0.62135264501391   -2.16198809005188
H          -2.66406144405695   -0.94855941132982   -1.90575352690266
O           2.34249155716592    0.64642429334153    0.09726077194282
H           1.69625505044028    1.21327152430156   -0.35327066395579
H           2.45633566968914   -0.10425376911781   -0.52862956240322
O           1.65544117416567   -1.22783320717018   -1.67942320451056
H           1.00560565986570   -0.52221117787062   -1.83537863413522
H           1.15407386408795   -1.93207974569672   -1.25820979562298
O          -1.00527175529035    1.47721215913760    2.01930780016980
H          -1.52468478598407    1.25658131730527    1.20412931021504
H          -1.63113895600382    1.47560522881087    2.74688839816677
O           0.72715628423963   -0.35772285016387    1.72097750204280
H           0.14680995391775   -0.86564175318170    1.00580012317455
H           1.50848172910179    0.07424319176482    1.13752132863116
H           0.11377708751042    0.41467605187077    1.99458622645866
