    19
        -40.91836656
S          -1.51503189298664   -0.53936774929734   -1.14174091036241
O          -1.79115595176133   -1.01883113365218    0.22181571820461
O          -1.70509413338842    0.89630871088763   -1.23639968307836
O          -0.22839683450414   -0.98284534855355   -1.62656647287222
O          -2.60833463419785   -1.20986052340183   -2.06023780719868
H          -3.40979730876221   -0.78619947514184   -1.76830738067757
O          -0.43952983014289    0.14570092872221    1.91675473780347
H           0.43531973296130   -0.36437777257274    1.95746922496296
H          -1.07913319699325   -0.40629201388411    1.25457244314671
O           1.91437644351673    0.14895345309331   -0.76897818543387
H           2.58469886842201    0.05299702258410   -1.44760835718079
H           1.10490051148187   -0.31029312481142   -1.12920883285831
O           1.91545895153013   -0.88060926353741    1.70432388764961
H           2.03308858842825   -0.60351435518919    0.76856158955124
H           2.60902434584603   -0.45712172647903    2.21361620177841
O           0.11433976578643    1.95817495391386    0.28019674882941
H          -0.22221870185901    1.01060801038467    1.35015159000207
H           0.91154766749195    1.59717331627980   -0.14208664007990
H          -0.62406238087653    1.74939610062453   -0.34632786219768
