    19
        -40.92136410
S           0.98753476033891    0.65728432687195   -0.71757464869607
O           0.66650102720270    1.56131944548541   -1.79391233492285
O           0.46824875739480    1.05736001402518    0.57086378136861
O           0.61172821112909   -0.73404003485045   -1.02502942387480
O           2.56943519188936    0.63599563618414   -0.58228474091221
H           2.88187958079444    0.82633583080351   -1.46228925690109
O          -1.84872223346908    1.61079634825226   -1.00835168002631
H          -0.97528459347681    1.68550452004279   -1.45549740437699
H          -1.77330244123685    2.14907925086869   -0.21550304885920
O          -0.98524461391808   -0.64568302316927    1.93108000431555
H          -0.29140187183100   -1.34078533304538    1.96572010945674
H          -0.47248931715616    0.15396625886721    1.67193460053846
O           1.26770790528340   -1.91768888412270    1.29335801488297
H           2.07226825202026   -1.49456189934131    1.59796834355933
H           1.13265436351702   -1.61196321156358    0.37653787847134
O          -1.81273627773767   -0.86595544543657   -0.39374787768558
H          -0.86649977981507   -0.98044788532662   -0.77624934317696
H          -1.60189967364560   -0.84555493711300    0.68060389857649
H          -2.03037725726137    0.09903902267707   -0.65762687171288
