    19
        -40.91039648
S           1.13789536642904    1.15272340958325    1.05556017846494
O          -0.08344956556462    1.86357326156984    1.37530576813598
O           1.12254184961077   -0.20298929753361    1.64674338855183
O           1.45901471097256    1.10986477661023   -0.34808230094445
O           2.31507462566748    1.90819507224477    1.78154297633178
H           1.98427075787121    2.03868722040079    2.66546363206331
O          -1.96954135048318    0.43164502240140    0.33872236793199
H          -1.29959379515922    1.06728357882621    0.70434187437509
H          -2.74838134166925    0.50669151465141    0.89343048664349
O           1.00859269325080   -1.04719688836151   -1.71636489645063
H           1.84552195497810   -1.48494091638523   -1.88068591820384
H           1.22495277764971   -0.17159567924069   -1.30424061986114
O          -1.81844589548647   -0.93709094772059   -2.17513117517360
H          -2.02317367284530   -0.16184877447675   -1.64353558963042
H          -0.90696059445857   -0.84099672259031   -2.46653309982910
O          -0.40559104672436   -1.61049767370234    0.35238336819215
H           0.29099041856349   -1.06926951758176    0.99996329310503
H          -1.18662601491277   -0.96660542638925    0.27624382224041
H           0.05290812229002   -1.58563198226511   -0.55512756594107
