    19
        -40.92218947
S          -0.62224102305678   -0.72345111390259   -0.65497207796515
O          -0.88644721797951    0.67830316050412   -0.96311671233420
O           0.80699822618240   -1.01227010406626   -0.71664774026373
O          -1.18700920887730   -1.10018600378076    0.64081530581826
O          -1.34319470982365   -1.60062027279598   -1.71978370767196
H          -0.92283215670644   -1.30303032022332   -2.55332033594820
O           0.26644112039214   -0.21899790165125   -3.27691381925092
H           0.96518741029492   -0.52023574814990   -2.68112488509180
H          -0.11094010948810    0.55707749728141   -2.84207253088927
O           2.08624273408620   -0.46512466814942    1.47094846206021
H           1.69451469457225   -0.65609208273355    0.57630398652760
H           2.47640404042918   -1.28895765621010    1.77097679721406
O          -0.67190870306697    2.26971184700074    1.07251499844391
H          -1.53174618918942    2.67967795207465    1.18907976593889
H          -0.72715735179397    1.75024533580383    0.22555612967581
O          -0.13937160216395    0.21960047702518    2.44512569018785
H          -0.32444479160482    1.15221120965475    2.03562959052617
H          -0.67063753303696   -0.41359244018624    1.77704963784575
H           0.84214236083299   -0.00426914749116    2.20395143517631
