    19
        -40.91940434
S          -0.83505483454546    0.44362292300930   -0.49705215591487
O          -0.17085588670911    1.69214907213166   -0.10859743275989
O          -0.10308131469209   -0.24352924840592   -1.54036172140481
O          -1.04481427459378   -0.41652852987777    0.67314232618934
O          -2.23522175345450    0.85451414911499   -1.03533308041204
H          -2.72648564298273    0.00681322606833   -1.06960619530256
O           1.05113690162056   -0.46257417529748    2.21719474178191
H           0.75353094480092   -0.13767030191938    3.06960768478958
H           0.23649455312149   -0.55322423149828    1.65677173309666
O           2.47187541208482   -0.23046385967209   -1.40934056214607
H           1.48985194590407   -0.36261434183132   -1.52026823211231
H           2.77425092380105    0.18881309665488   -2.21778216155885
O          -3.10032198078645   -1.57471891155020   -0.50353240587234
H          -2.30342319594805   -1.44032079064784    0.04542300107393
H          -3.84048046042207   -1.66523244664445    0.10132358022058
O           2.12532967735183    1.19976102026983    0.63476392147855
H           2.43254142620684    0.62901881532482   -0.17696893730327
H           1.16445177393871    1.54785887672253    0.31688141414038
H           1.86027579540944    0.52432566785264    1.36373448201508
