    19
        -40.91821043
S           0.83278296990174   -1.48863873897619   -1.01648646841343
O           0.74844264554893   -1.76253233338910    0.41036305293379
O          -0.50338744096874   -1.19924685876000   -1.56463367003613
O           1.80161744255551   -0.47655276678823   -1.34901026098249
O           1.28357984144033   -2.83072765537222   -1.71215603293689
H           0.57736451224019   -3.42753521317289   -1.48417393358723
O          -2.10245808404856    0.91033820580225    1.34396995710038
H          -1.22608868104409    0.62278030700561    1.68402229663378
H          -2.31833132710902    1.73515552171491    1.78312947606799
O          -1.28222654274396    1.08822789059567   -1.09479409221171
H          -1.00969817134756    0.08909696004711   -1.37606744487773
H          -1.76297132106339    1.00126453306786   -0.20717364132389
O           0.44405986678829    0.29979075173798    1.90085525459093
H           0.84068395352793    0.09197511004012    2.74854701451204
H           0.56716137669838   -0.52221702817474    1.34222261174400
O           1.00218394478634    1.78666535517583   -0.33902472990960
H          -0.34932412684603    1.52100888876768   -0.85421032672108
H           0.97182516186005    1.49912354358582    0.58992300374306
H           1.48478399991749    1.06202354713515   -0.80530207629309
