    19
        -40.92071399
S          -0.66749871378731    1.20989444448584    0.53325630974979
O           0.79162421820727    0.98767294059566    0.50632982611127
O          -1.07265776943860    2.21253971571676   -0.42500661225894
O          -1.37290581456671   -0.04470792461239    0.40715928864556
O          -0.98425850860603    1.79488024257890    1.96653693183468
H          -0.89524755060043    2.73688265613260    1.85295162795823
O           1.58689925955945   -1.16407580518028    1.89724316341546
H           1.30859289795537   -0.29973069241608    1.53441443317908
H           2.52230616835804   -1.09132089743475    2.09220221464858
O          -1.12742048822548    0.48119062743671   -2.38813197972895
H          -1.15624875131439    1.26562583038323   -1.79077846728139
H          -1.85908489912693   -0.07496036552930   -2.10472368879790
O           0.02444374179240   -2.23631533169495    0.02380205762522
H          -0.69955522118293   -1.60969406860710    0.25544822813242
H           0.63309514154782   -2.17745412742749    0.78998998886712
O           1.01520769517347   -0.53996147392134   -1.48177757052016
H           0.20908412022823   -0.18742103536637   -2.01724378089325
H           1.10096508541049    0.14852571066890   -0.72569453517473
H           0.64265936856967   -1.41157041581675   -0.92597742552755
