    19
        -40.92120608
S          -0.98282721691810   -0.26566725161445    0.92992761005627
O          -0.92411319022862   -1.10727045738205   -0.26551054122033
O          -0.68550468828731   -0.97718046222632    2.14256260253601
O          -0.23970502773276    0.96915797861777    0.73741287252090
O          -2.50660531189329    0.20152257511848    1.03506605058628
H          -2.91831426643654   -0.46434914454587    1.57769363036721
O          -1.09690411982084    1.87122392460882   -1.56685975460828
H          -2.04458181420182    1.72998879447380   -1.60780524649104
H          -0.83715306006003    1.72009606692649   -0.62880831240145
O           0.43104865766800   -0.11940820729035   -2.08413810161040
H          -0.11593203694754    0.73319605333003   -2.13621150424378
H          -0.13709921512622   -0.67670101972254   -1.39486210921301
O           1.75934441537877   -1.57419216779699    1.25686296675539
H           2.28047940063360   -1.87362410382903    2.00477960123790
H           0.85401998517958   -1.43000369633393    1.59431132299966
O           2.14502061310963    0.49143796749566   -0.37716979621863
H           2.25867276359814   -0.33913905994403    0.13315166368967
H           1.28332112782366    0.13232780712727   -1.49155875223833
H           1.47683298432715    0.97858440299385    0.14115579755313
