    19
        -40.92343661
S           0.53375656956502    1.12640026339107   -1.13674238490571
O          -0.75860659334822    1.18526143844678   -0.47222994849521
O           1.64055943710095    1.19978208735460   -0.20687228289410
O           0.63687133998748   -0.03823060379320   -2.01731683341265
O           0.60876392403516    2.39372617650641   -2.06959926300566
H           1.45883640094405    2.29583123733885   -2.48716432055641
O           1.36543653427933   -0.94025121919195    1.27274826422739
H           1.69510780169221   -0.15559747111191    0.77316607241306
H           0.63812576727963   -0.57793967767160    1.82065635894788
O          -2.11347483272182   -1.06412359525410    0.00375582434008
H          -2.17912035858490   -0.95484909319449    0.95887401352435
H          -1.84627971879305   -0.18449166273591   -0.33526382968406
O          -0.75884849618076    0.48769147840149    2.08942331915113
H          -0.76239697513797    0.88580474409815    1.19096453842577
H          -0.61405978501432    1.21006210351869    2.70201054013715
O           0.15813641163763   -2.03119051007592   -0.61492634379461
H           0.72588166717417   -1.71316415625990    0.23284903120291
H          -0.82158793618817   -1.82652068212410   -0.38118752648619
H           0.39289883227837   -1.29820086763770   -1.32314520911483
