    19
        -40.91898007
S           0.88250805235726   -0.54071755775166   -1.26266207352726
O           0.85133857189468   -1.27934092792666    0.01191547274516
O           0.08276953985512   -1.17100574334072   -2.28015289707755
O           0.56511393683780    0.86003469461466   -1.03659187408410
O           2.38998780014901   -0.58435833920568   -1.74388957652884
H           2.46789841444377   -1.38596681722284   -2.25443670047737
O          -0.87048035753839    1.03702638764101    2.36634628232281
H          -1.27777261459818    1.86016796181942    2.08882904320170
H           0.09926546791163    1.10939805837599    2.13391238448748
O           1.55531936775857    1.06402798430370    1.40619886601098
H           1.88837869304439    0.16392317185093    1.47342074066918
H           1.29405424272538    1.15883448493164    0.46665624561340
O          -1.98898967076649    0.18814586661323   -1.29878498663848
H          -1.66445072351210   -0.47206206701483   -1.93528404719845
H          -1.24856386846284    0.82167571798708   -1.26535639953861
O          -1.43677221113481   -0.94108563804971    0.90330058159860
H          -1.83817974617641   -0.51598021135284    0.04939059049506
H          -0.46278075746743   -1.20967023677136    0.59357558762319
H          -1.28864411729392   -0.16304679946456    1.58361274029207
