    19
        -40.91898894
S           0.13284622272238    0.97069776526660   -0.49814137903977
O           1.23699874920788    0.08302694587838   -0.79825218370337
O          -1.06057819136316    0.63309888480608   -1.27738372479956
O          -0.16859440616101    0.96776086134356    0.94040186076816
O           0.51097744493050    2.42521868563730   -0.89436733663434
H           1.13803546247234    2.70732771995309   -0.19526083868904
O          -1.26317761418542   -1.31741234713273    1.49625123925325
H          -2.03280602597815   -1.12255565567143    2.03526310925225
H          -0.79302431197986   -0.45004792162828    1.36692429501282
O           0.83389728012534   -2.36960035111602   -1.49065981705790
H           1.10924704520158   -1.42566636929920   -1.33480287586881
H           1.29310232079322   -2.89036649087712   -0.82785195916082
O           1.73015973047626    2.72964469497232    1.42127654989531
H           1.40722863826222    3.44268241951313    1.97732435178686
H           1.10558802937042    1.98549523417154    1.52728117123839
O          -1.55839463324549   -1.75996800902042   -0.98812781389992
H          -1.44081136042576   -0.72122509127835   -1.22653789773628
H          -0.63973749739515   -2.15670039413020   -1.26977799456111
H          -1.54095688282201   -1.73141057139675    0.03644123394631
