    19
        -40.92079119
S          -0.67207090771544   -1.29029542946729   -0.29913742022362
O          -0.34869661097320   -1.69262391201344   -1.64362036689930
O           0.48672117594742   -1.07846866295206    0.55721914102569
O          -1.57419359061424   -0.13776649234150   -0.25908146779110
O          -1.46426348490406   -2.48601338257001    0.37022982050117
H          -2.13559620734036   -2.69295676173114   -0.27253484916951
O           0.01993641638017    0.23849815009735    2.77681006375090
H           0.84220679225951    0.30066005110662    3.26703340558180
H           0.16846568063896   -0.42443988552650    2.06167190295086
O           0.66162994151089    0.52979239983065   -2.65656865998027
H           1.18444353826659    0.29219957414964   -3.42472022897971
H           0.21990005933321   -0.29562814370211   -2.36103487752686
O           1.55697793988780    1.21685502851814   -0.27451233286415
H           1.45649876070772    0.29713086938061    0.04464503091589
H           1.33996699425626    1.15734421298121   -1.23450754969482
O          -0.57479177913649    1.82965985014563    0.86222493908608
H          -0.41006539760004    1.39392804970767    1.76402686300724
H           0.36576636392367    1.75802475811750    0.36435021152249
H          -1.12283567482791    1.08409973626902    0.35750636478807
