    19
        -40.92120553
S          -1.12448207980621    0.75267211971705    0.26625054453608
O          -0.16516313732972    1.27104321376891   -0.70980044346806
O          -2.39856482027352    0.42133421953960   -0.30962533177096
O          -0.52576351215420   -0.28593965076980    1.08866035454626
O          -1.37850979010938    1.96107953093037    1.27954442469953
H          -2.10697838209465    2.43974252272828    0.89552579009109
O           0.84953772463055   -2.02752841572238   -0.40629340817004
H           0.19007175502281   -1.98300601672168   -1.13125664733475
H           0.34798191720382   -1.70760636589082    0.36732807262765
O           1.73722425219393    0.76525927761964    1.88422133771332
H           0.85017426312950    0.34714164119273    1.79190879356000
H           1.57704653599965    1.68474197365521    2.10469479653214
O          -1.25816150807253   -1.39007862400916   -1.90353827842504
H          -1.95200434501350   -1.93813326057279   -2.27615083298075
H          -1.70712152096872   -0.69802217336629   -1.38060901445504
O           2.04022129807878    0.15784222059441   -0.58675297883540
H           1.68131770623087   -0.84795038852529   -0.58339680287813
H           1.15177405600586    0.68949561113977   -0.77999563602896
H           2.19139958726404    0.38791256448266    0.38928526013708
