    19
        -40.92179441
S          -0.21232083634968   -0.79326058489080   -0.50332349767469
O          -0.49214803243210   -0.56975121761555    0.90102674509578
O           0.43627083354895    0.49790589039093   -1.07504165776898
O           0.61562273001680   -1.91972253978194   -0.77232563354319
O          -1.52159024495311   -0.87254623563970   -1.28109292013515
H          -1.92610996029201    0.07257015438855   -1.30337060583828
O          -1.95283102930806    1.59669507936859    1.40657411144028
H          -1.35584996986646    0.82246996483339    1.35196963640744
H          -2.65523557905281    1.35493242516703    2.01323597010921
O           2.02930303895326   -1.19946932373951    1.65545805020761
H           2.02822158946456   -2.14422074706813    1.48085094983189
H           1.09738237943864   -0.92799450464302    1.60155480980004
O          -2.26168508176248    1.54453695691872   -1.21150940322383
H          -2.26426495580546    1.70613790741409   -0.23491463202067
H          -1.46963596961997    1.97426721220091   -1.54778554289885
O           2.84919646229066   -0.14175568070582   -0.64506774884757
H           1.44336224606332    0.38706843150115   -0.96023599443811
H           2.72977999277545   -0.43769426441473    0.28998680856023
H           2.88253237699398   -0.95016891370695   -1.16598946502094
