    19
        -40.92267739
S          -0.60268972387941    0.62569653610593   -0.61690798766822
O          -1.05940524253938   -0.11448898961934    0.58564403990194
O           0.20742944795041    1.76575538775315   -0.21409618003572
O           0.08421026252446   -0.26094148057550   -1.52843468299578
O          -1.88791464028756    1.14312529787884   -1.32091179492833
H          -2.27146602965657    1.75674664554332   -0.65560287509968
O           2.33815086691508    0.35083825577527    0.35519797198165
H           1.63752077971817    1.02546898208034    0.18680631694520
H           2.64873473878478    0.08444161774372   -0.51454583526087
O          -2.12833679082145    2.49192128440458    0.91615353479729
H          -2.17863487021381    1.70754874989645    1.47212174473591
H          -1.18362187172119    2.62149600791451    0.73557443107996
O           0.70632852014058   -2.72068647202771   -0.92277081620882
H           0.49389205510668   -1.84258063850774   -1.32564938297194
H          -0.04482951244453   -3.28927401824455   -1.10308377713012
O           0.85241043160486   -1.48424178816637    1.29089169355155
H           1.58112762115566   -0.79571059151492    1.04953059414847
H          -0.05073540391672   -0.91332564585339    1.09757138669921
H           0.85782936157760   -2.15178913059002    0.51251162845479
