    19
        -40.92136408
S          -0.66074693452547   -1.21835812104836    0.02646303170247
O           0.04481594666384   -2.45817782358610    0.23597787642240
O          -0.61664138414432   -0.34279934430312    1.21088181071934
O          -0.25914146789108   -0.49797552946069   -1.16075230580163
O          -2.19550285467566   -1.58072916802207   -0.16015495053673
H          -2.30958908332798   -2.38125867859164    0.34423563397272
O          -1.90512445638829    1.80685863355347    0.24906870735756
H          -1.55632319885589    1.03299518578193    0.73032506722963
H          -2.60861103168535    1.47538578240666   -0.31161865713897
O           2.33553821768051   -1.23635233708049   -0.21640240386097
H           2.28313625262443   -1.11337510484836   -1.16835502170594
H           1.59024282302144   -1.83868083365245    0.00781400522739
O           0.47545613075230    2.00616078759367   -0.93142451196268
H          -0.37188857781899    2.30728727975963   -0.53507277619901
H           0.23408756625568    1.12938863755980   -1.30896641164733
O           1.56392178273260    0.87774383322302    0.98691996063741
H           2.06224285648800    0.09799420111257    0.54873398603803
H           1.20333804614260    1.50624879809711    0.16593616194978
H           0.69078935695297    0.42764379150570    1.28639080759462
