    19
        -40.91892669
S           0.42375898479734   -0.67216462813239    1.19347166438727
O           0.68115677776970    0.35531812671302    2.17934516503990
O          -0.94805496550642   -0.75941771776922    0.75808720325106
O           1.33681348573504   -0.55071307404256    0.04140200111365
O           0.77870048597518   -2.05910239435894    1.86516822036619
H           1.57026024274367   -1.88635573085416    2.36650813799129
O          -1.70850731067944    0.14578269053742   -1.72431082181118
H          -1.96108818683785    0.02519431588328   -0.79507413505751
H          -1.36192088918102   -0.73936350806895   -1.97888080834184
O          -0.03457453968590    2.52576192125130    0.94356055324025
H           0.16466746382485    1.74080395986594    1.51548476356382
H           0.51392857640742    3.24303502336821    1.26862464491166
O          -0.40356076280918   -2.17270895212796   -1.47797095209313
H          -0.67282140551790   -1.96999095527237   -0.56645170858518
H           0.54798245389625   -2.03360410940189   -1.48731958801256
O           0.43144250441315    1.35496702066904   -1.26319844781675
H           0.22061463932747    1.97206044213319   -0.47438521165764
H           0.92007366062648    0.54873419692230   -0.79648145664757
H          -0.49887120528005    0.93176336271092   -1.56757923374901
