    19
        -40.92174072
S           0.80848465593345    0.07953514346664    0.37583010739177
O          -0.24642607535022    1.12622735692613    0.68342479544920
O           0.48653901426813   -1.16401420489130    1.04349586055830
O           1.00582749975471   -0.03725543186377   -1.03920811822699
O           2.08903450665552    0.66293270243087    1.01147812086810
H           2.01892315306003    0.47371558666243    1.98293550731204
O           1.54058789661912   -0.35778940800091    3.33438271468818
H           0.95416837514599   -0.86502839993578    2.74303135690427
H           2.17329003067732   -0.98022319552433    3.70175253008872
O          -1.35148463956848   -1.80404259082698   -0.83753026782958
H          -0.74957650442880   -1.78388394984708   -0.07532438576926
H          -0.78858060261236   -1.85282921941166   -1.61463918061710
O          -0.56242266643987    1.22317904381920   -2.82661997680032
H           0.11237196600574    0.73895481228826   -2.31392243779684
H          -0.19102628758172    2.08594197440320   -3.01794956301684
O          -2.18985678909404    0.71548168903764   -0.78564851249578
H          -2.14787479686553   -0.26959504243097   -0.81126577854202
H          -1.15088077532745    1.00049987498302    0.09241209044520
H          -1.81109794081891    1.00819323868787   -1.64663488258257
