    19
        -40.92120569
S           1.25514188036234    0.46475158523729    0.33594375201072
O           1.73888183737598    1.72206681958313   -0.16415679684922
O           0.18336045368432    0.60777507609553    1.32220952444820
O           0.90415783211892   -0.51350981695619   -0.68064090717123
O           2.46443641865232   -0.20882568751701    1.13236195753942
H           2.95559155618621    0.52978964348825    1.47956026652944
O          -1.59693015936477   -0.13464648344074   -1.55476682889800
H          -1.50719293763655    0.84124688088738   -1.50172474755635
H          -0.67060864161701   -0.43971059828383   -1.58799642464352
O           0.07246216277698   -2.58572579769312    0.68804727436090
H           0.65152289850155   -2.69516300361191    1.44461038910171
H           0.52096221728971   -1.94433926351599    0.08990406135167
O          -0.66956236561781    2.32540384978728   -1.13965015212641
H          -0.56754556451903    3.05901949596741   -1.74966068220638
H           0.21155547522786    2.17151685763593   -0.74687027152194
O          -1.77789716465321   -0.81944445932020    0.83769828132357
H          -1.24981117994997   -1.68526656880278    0.84090310440047
H          -1.03905589975336   -0.13563628477829    1.14726989549940
H          -1.87946881907365   -0.55930223476529   -0.19304170560576
