    19
        -40.91889835
S          -0.29978817416715   -1.41000951375399   -0.40486639962062
O          -0.36161600123502   -0.82492419238507    0.95197950961560
O          -1.61111578983366   -1.42430431060457   -1.01955986401834
O           0.72799667961200   -0.77851479065020   -1.18841422881122
O           0.11016117186955   -2.92156077853132   -0.19364448638837
H          -0.72480292491164   -3.35388093089841   -0.04152855957881
O          -1.99959714108505    1.08800781938850   -1.56504682656066
H          -1.87213413702103    0.10839135073686   -1.49254051233467
H          -2.94744333819420    1.23775756032266   -1.57490447643409
O           2.05781196906530   -0.07243355805704    1.84433318186041
H           2.01410016443390    0.02992506598773    2.79604567925506
H           1.22206007729823   -0.49954159392319    1.57014694203434
O           1.76170824657919    1.45645472107926   -0.31757295905673
H           1.55258751882859    0.66079283057653   -0.86474562485813
H           2.17324913143695    1.07486378179655    0.48740387668442
O          -0.56652835119043    1.63934118703713    0.46676910878460
H          -0.57089971926670    0.67210153395721    0.80693009809250
H           0.49175188501991    1.72081346566730    0.10281845266320
H          -1.15750127722629    1.59672035226778   -0.36360291131236
