    19
        -40.91940434
S           0.11724806029183   -0.64795511969558   -0.84117069864320
O           1.44015819154800   -0.11282042238107   -0.59612154638222
O          -0.23276021637538   -1.68282713732405    0.13720917326255
O          -0.89920717494667    0.41013053526675   -0.86132501789311
O           0.09475206390661   -1.34792359351019   -2.22985759864986
H           0.10565735039701   -0.60101523304521   -2.86459945626352
O          -1.64232582757004    1.07155710087868    1.54483242487440
H          -1.37239482872820    0.92786635857674    0.60020864134249
H          -2.58709430507252    0.90785870960520    1.58021948006153
O          -0.28526151083452    1.00165632585971   -3.35626118838738
H          -0.55759205456827    1.09684047036096   -2.42291685403548
H          -1.07603171622706    1.11958829207776   -3.88788408741249
O           2.15628508861802    0.24245374663839    1.85498739458060
H           1.96097889705592    0.21670513555409    0.87747224617057
H           2.93714415158230   -0.30067211447057    1.98178356778172
O          -0.09548431214090   -0.74024889421799    2.40893032762639
H           0.85478575966797   -0.32469787807861    2.34678882557363
H          -0.74843442068469    0.03690863655420    2.24374834977651
H          -0.17042320593589   -1.27340492868292    1.48395601664709
