    19
        -40.91990213
S           0.80708428240462    1.22228860814425    0.37015214816261
O          -0.15737729972060    1.16034051563717   -0.71688794880987
O           0.64206642113277    0.04191797021992    1.24921985679222
O           2.16187627212856    1.39143620327639   -0.06596862641212
O           0.40572312062014    2.46396505096786    1.25629431226551
H          -0.54867476611726    2.45472744049322    1.28595938814875
O           1.85602937348956   -0.40221453850580   -1.97035743259682
H           2.17484857712419    0.26618138352285   -1.32123369740968
H           1.24585295988473    0.07657363630518   -2.53934956090165
O          -1.76174836708920   -0.89590215089527   -0.84835504378279
H          -2.15394773859783   -0.80209974382975    0.04175257066440
H          -1.33435786815534   -0.01983840262245   -0.99565529818804
O          -1.94243965768399   -0.17367350003640    1.74994716429438
H          -2.11338476074863   -0.64635823416343    2.56614718534714
H          -0.96869543344733   -0.07185078211298    1.68574740239684
O           0.49029146476732   -1.84279045339466   -0.38480890863301
H           0.64117291510286   -1.19578456262387    0.40727331083427
H          -0.52805588275817   -1.60200046150611   -0.65256117366318
H           1.08373636764052   -1.42491801886375   -1.11731564851609
