    19
        -40.91274164
S          -0.90730048774406    0.62449484629970    0.70626125665439
O          -0.76081253000740   -0.23942612706525    1.86214425274985
O           0.38495722703720    1.26786881907739    0.39676356907289
O          -1.47355248106625   -0.03773141091496   -0.44320834452098
O          -1.89035029316783    1.78249912168250    1.10357621236338
H          -1.49424110690414    2.21751499211545    1.85328630587450
O           0.16737833123887   -1.34941505716946   -1.99796796004454
H          -0.55100604337177   -0.83667672456212   -1.55277218802719
H          -0.08162230866809   -2.27431830894128   -1.93572357109544
O          -1.00530884504148    2.43075075774268   -1.72322512895499
H          -0.30377646651527    2.33453873951961   -1.07171085690630
H          -1.57213927461213    1.66506108910477   -1.59348310475303
O           1.13904298829274   -1.95520530750605    1.53892075301361
H           1.62223138664447   -2.00973112108006    2.36613607527569
H           0.33948024997280   -1.38897095240212    1.72173517131151
O           1.91550161097301   -0.51411285118326   -0.38434324193079
H           1.37160865728217    0.34087482682859   -0.08067584312340
H           1.75960050914164   -1.17056523296850    0.39750291484484
H           1.34030888653237   -0.88745009859835   -1.16321626170627
