    19
        -40.91966064
S           1.06246542089294   -0.87101955808461   -1.02191828101538
O           1.45649759458811   -1.39279722332813    0.27745207957194
O          -0.21518619912160   -1.45869449531169   -1.45359991079448
O           1.03094262475905    0.56975021749954   -1.07121785459917
O           2.13725713570800   -1.35965938600012   -2.06298859690874
H           2.11175668500064   -2.30677491445877   -1.96771896194867
O           0.51905835473588    1.94410893689729    1.26640038952166
H           0.29504614265500    1.21996529865436    1.86210220392890
H           1.03529337000377    1.54311316537232    0.54810768086959
O          -1.24466201849056    2.01014888645800   -0.69849051865378
H          -0.76711677561046    2.27220459661987    0.12590913362185
H          -0.51915312215361    1.75552504397790   -1.29248466007161
O          -0.36287120709014   -0.68183283357064    1.93410854273907
H           0.40179233893237   -0.98009967118346    1.36075802776493
H          -0.49934245323178   -1.37420263264775    2.58357716433370
O          -1.92117379067008   -0.31225959171164   -0.08864812621459
H          -1.76057535506402    0.71548526091676   -0.36106430947227
H          -1.28798230982836   -0.85602137669478   -0.74808439614420
H          -1.47204645600923   -0.43693973340857    0.80780037347131
