    19
        -40.92079089
S          -1.35980484531879    0.11900334671211   -0.58675635583490
O          -1.30953339037990   -0.64023335957985    0.66445768690653
O          -0.28571659479479    1.10046594041213   -0.64778259151498
O          -1.45108576101566   -0.73132479393029   -1.74533925784288
O          -2.69187038536735    0.97162518726858   -0.52336455216016
H          -3.37761716361376    0.31582782163988   -0.60226943096467
O           0.78506986393856   -0.27111614616220    1.92980701635036
H          -0.14348329487429   -0.52993373307639    1.50208905335791
H           0.68695478841293    0.73161451910067    2.05182239457512
O           0.68530576745684   -2.26464383927472   -1.47804015167561
H          -0.16380301632728   -1.78337262943665   -1.58339544483892
H           0.88535667607700   -2.64373038775191   -2.33600896033717
O           0.33720327654110    2.23185320719783    1.63503487281758
H          -0.01752729650414    1.97375030329963    0.75160459406893
H           1.03555462760545    2.86947408205308    1.47376709927605
O           1.95503482108062   -0.29458099444141   -0.27116294204266
H           1.69326278283545   -1.14108418377670   -0.70345570627947
H           1.30812768320731    0.35363756995293   -0.61608952441184
H           1.42857144109616   -0.36723190079596    1.08508220055284
