    19
        -40.92315263
S          -0.53479826080655   -1.07667159512637    1.19902448963132
O          -1.20312889485840   -1.72718697409603    0.06907187524930
O           0.87541010170817   -0.84246823281393    0.88107574940108
O          -1.19251102755759    0.11950524325860    1.65091560631396
O          -0.57462621079678   -2.12639268420132    2.37200929813266
H          -0.40678623320496   -2.94868483851187    1.92224914711134
O           1.37168665161711    1.72529752532966    0.41274790960116
H           1.56480971312824    2.23733847639397    1.19931625767834
H           1.23483324119378    0.80067486577291    0.71706865516540
O          -0.96825477743803   -0.19983851677060   -1.87796155121849
H          -1.17526642910775   -0.91963070234508   -1.14916271950961
H           0.05314310535072   -0.26592147736547   -1.98111408920598
O           1.55689540551268   -0.36811877835753   -1.63995271046523
H           1.95090612467004    0.50211654356796   -1.51743276919495
H           1.45633658301234   -0.73168542799489   -0.73271086542010
O          -1.18734674082126    1.78122983802105   -0.38054712729372
H          -1.42707991408767    1.29017537175614    0.43787269937560
H          -0.25180309854252    2.03319460728738   -0.22518246553250
H          -1.14241933882678    0.71706677632109   -1.35728738972094
