    19
        -40.92071446
S          -0.89199506768483    0.16987523304076    1.17087798473630
O          -1.62795141175652   -0.99351318976623    1.60942338829708
O           0.53960138404289    0.05553436587552    1.32781167085770
O          -1.23295431074916    0.53865835107678   -0.21745009574989
O          -1.37493618075006    1.38003529722928    2.06471516547624
H          -2.28066396642950    1.16609187283696    2.26973204643813
O           0.40092678929682    2.37875578598405   -1.28625100408488
H          -0.02433918070612    2.77936720197927   -2.04585355086164
H          -0.27920583148260    1.83786351182583   -0.83788550053662
O           2.06047158998470    0.35246088044926   -0.79471341303651
H           1.74314721277491    0.30410589515393    0.13649507499440
H           1.74431866514117    1.22873516348652   -1.10009856488972
O           0.08036313110607   -2.63679800134242    0.49838171820846
H          -0.66112948270931   -2.18580272049740    0.96723167373673
H           0.85767373849547   -2.46473856611926    1.03796312445303
O           0.18153384806876   -1.08964564258985   -1.51403950478930
H           0.18086957572504   -1.85356903048389   -0.82290450899214
H          -0.52017712957380   -0.44329653002607   -1.13498678124296
H           1.10444663718179   -0.52411988811493   -1.32844895290602
