    19
        -40.91984714
S           0.73891462073278    0.72804432458101    0.33398197675215
O           0.46907656395649    0.72342515588392   -1.10810485518371
O          -0.53777076025384    0.78530853834904    1.07445078004675
O           1.54104992224222   -0.39410024307312    0.74874448313729
O           1.51347473266460    2.03083261167279    0.66599140993670
H           1.04056100482483    2.73175214546544    0.16647114204645
O           0.50920792058486   -2.56905728897691    1.74943127396129
H           1.02722344478107   -1.76415899408210    1.50121956198971
H           0.84724268397833   -3.27979155942135    1.20000448636650
O           0.18907373940761    3.33414612767048   -1.19708921875596
H           0.74830706565925    3.72648097736368   -1.87162233240048
H           0.12368234772990    2.38060894145659   -1.40522480507388
O          -1.00509677271451   -1.38466735989443   -1.53888730378947
H          -1.65027587600325   -1.12800206916221   -2.20120546926541
H          -0.37234460026169   -0.62599250501585   -1.46189062251149
O          -1.60419553868054   -1.40748271442818    0.94753801016165
H          -1.20732395820413   -0.37876839908350    1.08943631975055
H          -1.50397922835969   -1.52105601628330   -0.05769026613560
H          -0.86682732208578   -1.98752167300682    1.36444541897857
