    19
        -40.91274167
S          -0.52766461508294   -0.19241812441984    1.18317720977282
O           0.57236133820457    0.42236338731629    1.90136495182879
O          -1.29049047414902    0.73722069606294    0.38689886273902
O          -0.02959430663607   -1.33031580462158    0.38500630048302
O          -1.50707717122825   -0.80004171911624    2.24947452464845
H          -0.99275221861597   -1.42408367132072    2.75366918043431
O          -0.41609729623729    1.25925851091312   -2.02064732731780
H          -0.90380924220334    1.10199660412172   -1.17548336162892
H          -0.17970409623895    2.18949435265697   -2.02785441010681
O          -2.68404515407722   -1.56993731775900   -0.43875713876621
H          -1.77963964133432   -1.85569239357768   -0.27706850540246
H          -2.70107508556669   -0.64261056053734   -0.18518366964050
O           2.48088778766425    1.10955794106675    0.30675374133781
H           1.76776622230363    0.95543719953944    0.98579644534261
H           3.30965643586735    0.88305214748893    0.73401665684146
O           1.39160280803767   -0.38914619653678   -1.40980842972103
H           0.70178053755136    0.25772346028070   -1.83690048746953
H           1.97946982878864    0.21024933670571   -0.80865447703512
H           0.80842435287608   -0.92210785823790   -0.70580006635013
