    19
        -40.92135411
S          -1.30090494557702   -0.09513173904136   -0.85761686779174
O          -1.73718418802339    1.01253389735218   -0.03609738373321
O          -0.38529601525869    0.33359111049270   -1.91568996131986
O          -0.74621039483441   -1.19699875582512   -0.08718136155609
O          -2.57848785333917   -0.67153194732229   -1.58283262774236
H          -2.96202723428163    0.10276002603882   -1.98293331321675
O          -0.16925943991547   -0.46388060104049    2.43608937254831
H          -0.42316168812280   -0.85875021723433    1.57907551641142
H          -0.97904863491128   -0.37901913061994    2.94231257251175
O           0.47232427086374    1.75879697156533    1.15828867679474
H           0.44554158286863    1.02500723408277    1.81789609613609
H          -0.41978906739980    1.71380067415481    0.73998819490760
O           1.86053729684906   -1.57948128552993   -0.32780432953253
H           2.03758122964108   -2.15525179396674   -1.07401012852559
H           0.88639470189630   -1.59246867691383   -0.18830984061434
O           1.75410198314667    0.92827501170929   -0.78911760628952
H           0.91834319766340    0.78095867232441   -1.38831246884830
H           1.31132470647127    1.36390354800454    0.11008230525552
H           2.01522051220167   -0.02711298830028   -0.55382682530416
