    19
        -40.91941535
S           0.69021588382795    0.20994359653083   -1.45259502973933
O           1.63127433856663    0.93024339537117   -0.58624709223606
O           0.70701061166669   -1.21286634643202   -1.16547293537935
O          -0.63753491870417    0.78032072445700   -1.41038629091923
O           1.22220475303411    0.39966460565699   -2.92245483428091
H           2.08255878000784   -0.00732889821454   -2.89356078360510
O           0.49459952269569   -1.75208234138553    1.43843365506968
H           0.81533472944907   -1.77273318631335    0.51194628465879
H          -0.47086091259315   -1.85726966908826    1.32943302328861
O          -1.78257232880606   -1.46545268818948    0.06499370759587
H          -1.10616039159459   -1.42082776339283   -0.62791464132978
H          -2.31507701855948   -0.67357540662020   -0.03375531001188
O          -1.38843599565248    1.63005535689604    0.92210584799869
H          -1.50826786928252    2.58118014556891    0.89687790615634
H          -1.18956912578807    1.34823190352340   -0.00851850493009
O           0.83758456668721    0.69627329709835    1.74815138971134
H          -0.09030089421594    1.09738730508230    1.61017139525786
H           0.71177646928422   -0.36717094395411    1.76433188673864
H           1.29621980997787    0.85600692338569    0.81446032595966
