    19
        -40.91274100
S           0.38975672304865   -1.00491628812276    0.74162098752635
O          -0.70052554779081   -1.17004800134878   -0.24007764939129
O           1.67240695803544   -1.14232534774029    0.07843971373313
O           0.25724025478365    0.21475837531088    1.49993087322076
O           0.25324667180524   -2.19663484905164    1.75470583447578
H           0.35128010032136   -2.99190625113821    1.23879108029494
O           1.89212737231901    0.48300434498746   -1.91406870125156
H           1.93220862998249   -0.11805928280939   -1.12017456083391
H           2.30901908623390    0.00359571932020   -2.63313633565351
O          -0.51735001394276    2.35255712535945    0.21021336550506
H          -0.29603121197511    1.62145438059330    0.83745460058707
H           0.21686761567492    2.96990128782518    0.24428539596477
O          -2.37515105689245   -0.69350539222687    1.94032777416876
H          -1.58359654727531   -0.26406496969850    2.27715918508655
H          -2.13170210264887   -1.01424958360048    1.06645185094511
O          -0.61157044147501    0.78138544624064   -1.75970747622329
H          -0.76999045261537   -0.09293715329761   -1.18450844439092
H          -0.68251518363538    1.53773158096395   -1.05275191866120
H           0.39427915607295    0.72425884847201   -1.98495557509158
