    19
        -40.91893422
S          -1.61319108372073    0.63384838654220    0.08577099693691
O          -0.46888222008549    1.52801950981600    0.31980761678921
O          -2.08420039666744    0.70078673300204   -1.27432906420578
O          -1.33928428213306   -0.70213816556038    0.57738619348852
O          -2.78419133715242    1.19959116607676    0.99591488136785
H          -3.18211859449334    1.86576734798324    0.44363132449935
O           2.20922809358901   -0.09142779202379   -1.50136806659048
H           1.33540654939120   -0.50976065401829   -1.72868398915825
H           2.31746340411860    0.64516414769537   -2.10621945867680
O           0.71415307370701   -1.41092776885460    1.98929289685225
H           0.47334810089499   -1.37125782658971    2.91663108142924
H          -0.12139889148444   -1.25601132881032    1.47730064258252
O          -0.20185135266048   -1.02686036181741   -1.93538621956669
H          -0.90727040488142   -0.34962887124444   -1.89208731676289
H          -0.44717866932274   -1.66496907283141   -1.25866240971566
O           1.74929811965828    0.62426299481200    0.88003111411003
H           1.48998826838462   -0.22620213380007    1.38990280941000
H           2.05681064255196    0.32482668531509   -0.06283683832153
H           0.80387098031697    1.08691701431165    0.68390379551666
