    19
        -40.92246924
S           0.37136661374419    0.41112416526739   -0.91623774259519
O           0.97706131074726   -0.85509703727041   -1.25679135480291
O          -1.05074312913567    0.46695579262535   -1.07128956873996
O           0.77313225847578    0.78669034914255    0.50799161923410
O           1.01917231750745    1.53319054960151   -1.75629426292888
H           1.99140296829562    1.38571264532723   -1.64175119838650
O           3.28860952082485    0.50118100773054   -1.01787973581526
H           3.34137041481960    0.65098452687804   -0.06973568448610
H           2.77351055002576   -0.31292180235034   -1.14016264725704
O          -2.77372118884368    0.79086887955282    0.96756254778614
H          -2.29259871768069    0.69938258184529    0.12327099377459
H          -2.99344856719786    1.71973375879285    1.05636078022158
O          -0.83189543593835   -2.27147851398326    0.16186278990231
H          -1.64353534468572   -2.10992204954718   -0.32561899050399
H          -0.10963723774480   -1.96785240554430   -0.41425448758479
O          -0.69503463032915   -0.43493261423377    2.06513810861676
H          -1.55612833617772    0.01700139666960    1.89907956874871
H          -0.75427104319803   -1.28354471250078    1.56258570190201
H           0.16538765649672    0.27292347200426    1.26616357289643
