    19
        -40.91907728
S           0.82554455998222   -0.88227126318556    1.14917716393225
O          -0.51308756291730   -1.22298677013202    0.62194370362254
O           1.58417041804614   -0.13120011995352    0.17567763222736
O           0.74231745611234   -0.25914290384736    2.44936432207415
O           1.56183935899718   -2.27033117566973    1.34159578088075
H           1.28747549429249   -2.58235976291965    2.20000498299377
O           0.38586807373612   -1.11924129043268   -1.95846336366411
H           1.07872346247053   -0.73950251620393   -1.38312489149081
H          -0.15206820894867   -1.62703106541967   -1.33686385581766
O          -1.62055680298189    0.95112735293111    0.16976280041051
H          -1.26843486937810   -0.01757769856797    0.39529725989300
H          -1.48357414833153    1.05000071691212   -0.85656154019422
O          -1.11685858365979    0.98187296635081   -2.30624742463567
H          -0.48453256462298    0.20523677364887   -2.30741120217757
H          -1.82239387092145    0.76590969151436   -2.91869658574312
O           0.34867469978141    2.06200327360213    1.29496515038449
H           1.06474422659409    1.91276355594562    0.66392380455835
H          -0.91114443866038    1.55669560862364    0.63102537189968
H           0.49329331041507    1.36603464680858    1.97463089082567
