    19
        -40.91907733
S           1.66101335180424   -0.05246449025588   -0.14147764126676
O           0.87409575768857    0.22853761596515   -1.32021263403245
O           0.92816226698240    0.33429211749755    1.08278598840667
O           2.15212275675438   -1.40836401487556   -0.06201313368313
O           2.92441474817180    0.90023751014193   -0.18802840344406
H           3.58046643915041    0.47082051503960    0.35487089819405
O          -1.13349899143543   -1.04653854269226    1.08718472970781
H          -1.83850783630281   -0.37671867986015    0.71839243111641
H          -0.25854809425035   -0.47102012373010    1.21598483451260
O          -2.63828054790645    0.74227083712619    0.12741186687330
H          -1.91294620892389    1.38765737866032   -0.11823564050534
H          -3.23314229437235    1.20611572035005    0.71944162185914
O          -0.52394980566156    2.21090358813173   -0.28097174685043
H          -0.02838903811721    2.05040994730794    0.53268437665960
H          -0.05416515245307    1.65415542691928   -0.93294836989776
O          -0.17513345170645   -2.28374033406300   -0.89494153986092
H          -0.87055088444829   -1.67452342461933    0.30023833892136
H          -0.21625138020000   -1.62241176220281   -1.59796715399320
H           0.76308837523140   -2.24961926484834   -0.60219885271322
