    19
        -40.92136303
S           0.26896335633025    0.81723213755247    1.08735893090602
O           0.53145695883629    2.22607499920850    0.92787551785634
O          -1.04306726545034    0.40284553865953    0.64349773030562
O           1.31655547939914   -0.02020827133695    0.47766405682805
O           0.34344015079287    0.50363663251098    2.64222678574643
H           0.93437654308403    1.16802011348388    2.98526575614571
O          -1.22922022886324   -1.55802932620549   -1.08285163031324
H          -1.45697912387130   -0.84856184026330   -0.43894171327395
H          -0.75927672660897   -2.21250586942083   -0.51991601593113
O           0.28779952714508   -2.46080118455261    0.91232729650040
H          -0.11943710821021   -2.43726136961132    1.77989389887851
H           0.80668758438905   -1.63786007316710    0.83525507438552
O          -0.38280177210048    2.12220312416950   -1.54172492948652
H          -1.32598147754147    2.03937192745599   -1.37563120715394
H           0.01579743160410    2.33659560021266   -0.66788193511666
O           0.64473158931365   -0.18054164049062   -1.93506803983197
H           1.11592488395657   -0.16251529774089   -1.02335699062240
H          -0.19097656270990   -0.85730293593122   -1.72388962579309
H           0.24200677041807    0.75960773542908   -1.98210298000415
