    19
        -40.91941576
S          -0.20487306401905    0.90690697359177    1.32325682732525
O          -1.50529401936173    0.36902648707017    0.96684687078919
O           0.67492155273635   -0.14895451791885    1.83888445522625
O           0.41138943624330    1.65666430396825    0.25188894417280
O          -0.42259260287551    1.91076370982195    2.51679198526057
H          -0.84138953774347    1.36894865086349    3.17832946869969
O          -1.33791188157251    0.56275713943126   -1.80413014729566
H          -0.58890787359122    1.09657730906628   -2.07690226033640
H          -1.50662361647587    0.79481194545091   -0.87810502541497
O           1.88196658104262    0.25575576117416   -1.36303370851480
H           1.35294791077190    0.87704644328046   -0.79851918177839
H           2.79659208063666    0.53393601350099   -1.28777902044308
O          -1.33172422301759   -1.81021545807179   -0.56360409758114
H          -1.42257907324875   -1.25029755651518   -1.35905663559472
H          -1.60691891853140   -1.20280101542301    0.15541746927868
O           1.09556079632717   -1.75184747256244   -0.00193201548737
H           0.98513249881276   -1.16905197000437    0.86725906316969
H           0.08083314425080   -1.91553272909272   -0.29920377340694
H           1.48947081958806   -1.08449401764230   -0.66640919807168
