    19
        -40.91907733
S           0.99103871442249    0.04653496369278    1.34022936445268
O           0.47842034668043    1.23537927493866    0.62654856790390
O           0.09372248586841   -1.07438606440035    1.17976459737092
O           2.36363079944318   -0.23399333911108    0.98953811059973
O           0.97137355098818    0.44184456708131    2.87299000475091
H           1.79260634609430    0.90314047285343    3.02202759533367
O          -2.10233263682792    0.34798137345260    0.83704499109104
H          -1.50519102547442   -0.38248165684141    1.09317757226071
H          -1.53746471440301    1.12654858079775    0.92670538570072
O           0.35610756814936    0.57384720120219   -1.76177216985455
H           0.43960981430940    0.97456066691017   -0.78903208542149
H          -0.65314362362610    0.34561351160409   -1.86795868652255
O          -2.11232433030417    0.03379923456098   -1.75042677477467
H          -2.23986740677941    0.08529423578499   -0.75842686227327
H          -2.72015570833483    0.66403521817918   -2.14141406894223
O           1.53896282448678   -1.56227803799692   -1.11571596374983
H           2.11457995645587   -1.16412423353221   -0.42479049291847
H           0.86606627638581   -2.03186309510497   -0.60594170858053
H           0.86436076248430   -0.32945286408610   -1.67254735642391
