    19
        -40.91940438
S          -1.06652261357911   -0.04933372109209    0.04451882807206
O          -0.68933252896513    0.78327128700163    1.16750771690516
O          -0.39540977642087    0.37146575283828   -1.19069637115161
O          -0.80734905277590   -1.46693106303645    0.31661502852360
O          -2.59964577695170    0.06729169916167   -0.19027106390300
H          -2.70482862205406    0.95759312861523   -0.58705615930365
O          -2.17691718525820    2.28139978235184   -1.55137240572976
H          -2.47427300690369    2.30905787536123   -2.46388649734889
H          -1.32922893102546    1.79590981884752   -1.54664656079035
O           1.46511082311278    0.16903761274922    2.44352848195698
H           0.66235054461509    0.54027708423448    1.98298890964810
H           1.19592954947862    0.00367497478854    3.34961814792172
O           2.02262344270891   -0.58194427305244   -1.34451434411948
H           1.14034527205383   -0.12645118896264   -1.33793831157777
H           2.04362342116524   -1.11090323684747   -2.14479975195592
O           1.57844563321206   -1.77522271345761    0.84652215588831
H           1.67271699090765   -1.03692483813161    1.57132246827376
H           0.52509999911950   -1.77338039520147    0.65678043778755
H           1.93726182757686   -1.35788758617708   -0.02222071912766
