    19
        -40.92136401
S          -0.49204531970679   -1.18553778115085   -0.52375711153945
O          -1.36267232335767   -1.20265418127491   -1.67284708475351
O           0.81653552067808   -0.62572274162510   -0.77651441516947
O          -1.12033048482510   -0.54308307720311    0.64425147095297
O          -0.26349458108127   -2.69554377529502   -0.08901539321224
H          -1.05769553807458   -3.14206656296328   -0.36854323140152
O          -0.74780742040940    1.30970414027120   -2.18025077026096
H          -1.11099437208177    0.39677029728929   -2.12566777235693
H           0.14674842330614    1.20590674055148   -2.51645222631478
O           0.92087796425808   -0.64660252031825    2.38493529371142
H           0.08634941191104   -0.68944128276958    1.88100180097898
H           1.36118644566892   -1.48591723284262    2.24033416371339
O           1.67652549234077    1.32035872285476    0.75327943097040
H           1.63271261075850    0.61475368247780    0.06816945546284
H           1.60245971506187    0.80952258294572    1.58948213221550
O          -0.68882762564148    1.90394183840036    0.30106002637537
H          -0.74847134643867    1.86656886080189   -0.72033383653644
H          -1.02570664931263    0.97027443666372    0.56574956237803
H           0.37465008700481    1.81876786315594    0.54511849480719
