    19
        -40.91907731
S           0.55176719228110    1.55942846488161    0.20872674242618
O           0.60545258341583    0.49919807737790    1.23769116596096
O           0.57413687501998    0.98811487014061   -1.11803606898480
O          -0.53972421704496    2.47521276751653    0.44502626382527
O           1.89530916000451    2.37775752756087    0.38507359194769
H           1.71157648588922    3.01445716472888    1.07093256262757
O          -0.25751930922228   -2.69304764795628   -0.45511196168759
H           0.61383207100735   -2.21312210612465   -0.57006481700163
H          -0.06110611770548   -3.52457110018724   -0.01979345146435
O          -1.42179029969281   -0.88357093024361    0.86995465814422
H          -1.03606616446779   -1.68775858547195    0.33490962669618
H          -0.57594311941614   -0.32014739711998    1.15394925309982
O           1.88565696479427   -1.20944573288220   -0.47308879555566
H           1.88057053465035   -0.86896926885540    0.43103849161747
H           1.55988035699866   -0.44801319369369   -0.99224203992129
O          -2.16198336047851    0.84589338000234   -0.81521235627019
H          -1.88524748023900   -0.25518886011370    0.18233662823614
H          -1.80227110966485    1.62577666555818   -0.33593733775715
H          -1.53653106617854    0.71799592496070   -1.54015214602510
