    19
        -40.91907727
S          -1.37739506467003   -0.21934295729739   -0.91320018656822
O          -0.68099895070933   -1.38448804100275   -0.41853619490737
O          -1.10917428958180    0.95552877312673   -0.05660608388063
O          -1.13590342286783    0.07236589338237   -2.30682718750491
O          -2.92694905973590   -0.50258931346054   -0.75636827711662
H          -3.35086569731466    0.07231365942284   -1.38818925079166
O           1.87367414526516    0.13510914649639    1.99984575596185
H           2.07272233544727    0.66843561578002    2.77149411521806
H           0.96415585799198   -0.25778823693045    2.14594453158082
O           1.34356464040526    1.31307747407370   -0.17198885597232
H           0.29005210033929    1.29137366159758   -0.11574177615646
H           1.66467967174074    0.86972300286517    0.71241639087641
O          -0.61383155569757   -0.63566569470445    2.11170886092349
H          -0.64964452812424   -1.20793580674941    1.32019867477529
H          -1.06644982555321    0.16506304379594    1.81580850731783
O           1.40755937555204   -0.46583736850649   -1.96368254617963
H           0.54620091858430   -0.23459480978002   -2.37810283698389
H           1.53773388184381    0.63734477132279   -0.93894699698813
H           1.21086944709268   -1.27209279344486   -1.46922664361455
