    19
        -40.92267705
S          -0.09510067308759   -0.83060269825777   -0.66005361880771
O           1.34441917908254   -0.79506538780072   -0.87281474289564
O          -0.38612511831381   -0.83468933451993    0.79518414348867
O          -0.78934471960882    0.25517219714928   -1.31402518774209
O          -0.65492892361581   -2.16902471011809   -1.21695934835843
H          -0.11171347791609   -2.84480125081489   -0.75376239261873
O           1.17219065617185   -3.17538277119670    0.37397308591988
H           0.79564341978842   -2.81354053627918    1.18246947220076
H           1.66844910908343   -2.44594786503839   -0.03085114027156
O          -2.06961071033837    2.11622950798054   -0.00875833188231
H          -2.95763761522799    1.81076637136135    0.18650332562287
H          -1.68501976838263    1.46505104862123   -0.64620358889437
O           1.60725099461256    1.74600112646224   -0.28892094517428
H           1.20701965179222    2.17720512492877   -1.04901339931743
H           1.68561990019548    0.79448888647568   -0.53939311913549
O          -0.14691390163892    1.49490899815068    1.53097182448391
H           0.64409537410991    1.72907241993538    0.91263598733757
H          -0.96880499288467    1.88887325147437    1.06198126451515
H          -0.25948839385126    0.43128562148053    1.33703669151319
