    19
        -40.92135408
S           0.09183024067253   -1.20937241957629   -0.98254265525546
O          -1.09716188548150   -0.62645164440021   -1.56431325709705
O           1.15948090597593   -0.24454209026463   -0.77151963401389
O          -0.20515149938011   -1.95636344980702    0.24037198265996
O           0.65345122902092   -2.25915459669596   -2.01819649252833
H          -0.10625141807784   -2.80331922362832   -2.20094013613795
O           0.26656315333989    2.28825003914635   -0.93423082018794
H           0.10112235649239    2.51570281839289   -1.85080149092333
H           0.71227602361966    1.41878181810817   -0.94477185161892
O          -1.81467484102288    1.14598823452808    0.22629744964292
H          -1.13579272622260    1.80575088074651   -0.05341569654805
H          -1.78463739419775    0.47637153330699   -0.49744060990381
O           1.69577741873524    0.34980620543394    1.74986134504683
H           2.33557064420647   -0.27187139950085    2.10175300929362
H           1.64617402366589    0.18311116549258    0.78112957083704
O          -0.77210068406112   -0.26138159672247    1.97434010889639
H           0.17481465169446    0.09620674140544    2.08074386760713
H          -1.29787205991694    0.43191970361350    1.31183931644699
H          -0.62341810905561   -1.07943269960220    1.35183599378707
