    19
        -40.92136406
S           0.66447864180993   -0.21932227892279    1.19695391918107
O          -0.44647485924091   -1.08593776026948    0.76543929824434
O           1.92117656866727   -0.92461589103152    1.24606562270037
O           0.69632173826762    1.00014942778062    0.42132880352462
O           0.30564533537347    0.19907243190459    2.68586318539596
H           0.71985494154043   -0.47023765515345    3.22317912861337
O          -2.44249233841656    0.70843727666847    0.70269314189701
H          -2.30543074610898    1.29641104446007    1.44734846796977
H          -1.82607264711969   -0.03708613667456    0.83049858562925
O           2.17102386376735   -0.67384529029385   -1.36524251672863
H           2.38588117738419    0.26082787835610   -1.43091516814178
H           2.22790959888692   -0.88522486782236   -0.40577020660701
O          -1.06327598391274    1.32660769622200   -1.49242860689823
H          -1.84594055693369    1.23394666762406   -0.90550477604791
H          -0.33369359879452    1.48583841921960   -0.85076626498940
O          -0.32830887209665   -1.02671286845029   -1.73979051231081
H          -0.71095575213958   -0.00304115990550   -1.79950336867704
H           0.69200127935345   -0.95031596583244   -1.78357500206808
H          -0.48164778027018   -1.23495097786403   -0.74587374068580
