    19
        -40.92315433
S           0.22629809141820    1.65908948855251    0.27997115908627
O           0.51938082843798    0.99750155928636   -0.99290583598731
O          -1.21535813027112    1.63223160375520    0.54065325698996
O           1.02009365568618    1.13185038281522    1.35712123058564
O           0.59075527186401    3.18110787618741    0.10529725899095
H          -0.17076479942666    3.52590861072978   -0.35047035192986
O          -1.03152045330477   -1.00634873145842   -1.78277180728470
H          -0.53174001480935   -0.16456255087113   -1.69977750023425
H          -0.35748767117264   -1.69194370042802   -1.83907978294805
O           1.65011605634592   -1.38065865860527   -0.64169046550662
H           1.36351414754511   -0.45222454196810   -0.79083342472795
H           2.60356609595587   -1.35223148478435   -0.55030429199297
O          -1.88665099125323   -0.76111326438476    0.59837471982829
H          -1.69829122099517   -0.98004870766164   -0.38898283222251
H          -1.74942023248023    0.27377218642434    0.63722600373726
O           0.28376674681157   -1.36797198239298    1.66316460315084
H           0.82014119820916   -1.66406482000719    0.89660067742552
H           0.60371169108713   -0.45066061818362    1.82084048249461
H          -1.04011025936015   -1.12963262690613    1.13756688046362
