    19
        -40.91908973
S           1.18330991772313   -0.21635393536663    0.08828534027042
O           0.10841178580854   -0.14468296519917    1.12287054021380
O           0.78000966590465   -1.13807426981055   -0.95644302573700
O           1.50298113146886    1.10084071803046   -0.40472990113341
O           2.43733192027518   -0.77989118217500    0.81026825807453
H           2.09902507216414   -1.56512333748230    1.28894848813490
O          -1.49003812877087   -0.53417403178989   -1.98285064272297
H          -0.56408555867571   -0.79326315171682   -1.70334350855876
H          -1.97499086437633   -1.35711046762126   -2.07411406251287
O           0.91361631034809   -2.40579490221948    2.22389352653039
H           1.02337195553196   -2.32493873858469    3.17423673104126
H           0.35285039519285   -1.65830748385483    1.94139554430166
O          -0.36793450347222    2.85408308199492   -0.77048953196124
H          -0.37241884553989    3.01538029027549   -1.71688271084583
H           0.44770806920502    2.31689954308269   -0.59030070514870
O          -1.81736475983171    0.95059936872367    0.03028619866156
H          -1.05155973841255    0.48725612512179    0.60940823249506
H          -1.36559655927456    1.83450182354183   -0.27168463996288
H          -1.84462726527990    0.35815351505892   -0.81875415113911
