    19
        -40.92267734
S          -0.36727295262724   -0.89730237044006    0.44243056112132
O           0.29350525662298   -1.31419738606347   -0.77348341774902
O           0.42112387362938    0.15603880405101    1.12936155055934
O          -1.72614442567997   -0.42660000812553    0.21853402494933
O          -0.40662441568834   -2.11054172587122    1.41284426265712
H          -0.89407527043101   -1.75598911566840    2.18923199437498
O          -1.71117060151545   -0.39913749345880    2.91362641889760
H          -0.98011839472522    0.22500751357043    2.96709122789575
H          -2.13172544691344   -0.23250943176662    2.05504672378317
O           2.38782307889634   -0.09775974986352   -1.74231870408101
H           1.64629640631175   -0.69800852268054   -1.48087385724667
H           3.17708491491521   -0.44445608959619   -1.32170055001802
O          -1.10328138999996    1.13618154421403   -1.79084841894300
H          -1.50744422967840    0.60334803398008   -1.06495837734297
H          -0.90691117207072    0.50602623138112   -2.48965128578896
O           1.06335306938134    1.75560332882986   -0.61886903918023
H           0.82465021007928    1.14024406131926    0.24392805889850
H           1.73117359763928    1.16655429260046   -1.12713742675826
H           0.18975791186199    1.68749808358463   -1.16225375604054
