    19
        -40.91966067
S           0.07770382669949    1.41922340362832    0.95496292459522
O          -0.99479386244662    0.70391655799314    1.62893710199497
O           1.38509271236052    0.83540696261673    1.29267190950316
O          -0.11117096720809    1.51700986043849   -0.47107776876632
O           0.09462757060835    2.88256856310252    1.53479395781227
H           0.20950904663492    2.74034798285684    2.46935425572115
O          -0.93348232457659   -1.70238269577848    0.75404578150473
H          -1.04244933432138   -0.78104705095352    1.13038559479265
H          -1.15927439233721   -2.31083888580532    1.46019795805880
O           1.02290602386650   -0.22000838014623   -2.23371199131412
H           0.07664979612909   -0.48151614619915   -2.34858606839363
H           0.95369627571928    0.69456240910136   -1.91402978729873
O          -1.55808185991449   -0.46168342946263   -1.73334954545225
H          -1.37235632774879    0.39111716848851   -1.30698816985361
H          -1.67786626031783   -1.09218075421859   -1.01385307052894
O           1.48925202567723   -1.25578425634629   -0.01255119831969
H           0.58227874813399   -1.61540351861846    0.24980817511558
H           1.38393112647572   -0.88908615694431   -1.01778489474170
H           1.57382817657312   -0.37422164374672    0.57677482557913
