    19
        -40.92071418
S          -0.01803966262358   -0.03098783546020    1.48233221914900
O          -0.15095704167428    1.18502887119381    0.65532558445224
O          -1.26802306152091   -0.38360670380901    2.11522509437455
O           0.57850207809171   -1.10147578380131    0.71741032713918
O           0.98973199739853    0.34796275732138    2.63864574977204
H           0.43168851997808    0.71986756117070    3.31578036166388
O           1.08999133005978   -0.68858674199873   -1.82654272670474
H           1.09795673972623   -1.05541758635939   -0.91242484567292
H           1.63314361220883    0.12455444003714   -1.75287726460909
O           1.96087289574602    1.66345886803080   -0.92800770216907
H           1.93824158496191    2.57667141164379   -1.21773418276159
H           1.27648679156243    1.57278230567361   -0.23542814460896
O          -2.12906823697024   -1.63619264561390   -0.01614969375059
H          -1.50914994579821   -2.37097085970501   -0.04429683720194
H          -1.98392182166915   -1.21292649326544    0.86296591277763
O          -1.17248448942801    0.23763372396788   -1.44051449299218
H          -1.68558091704711   -0.54156078482814   -1.00424538129229
H          -0.86061173206860    0.78340705636867   -0.62899233208259
H          -0.21877866093851   -0.18964154066143   -1.78047165553815
