    19
        -40.91990201
S          -0.12438780796686   -1.37641648581302    0.60739870012753
O           0.44772098449255   -1.11246281834822   -0.73288873831623
O          -0.23898754722731   -0.12744339140641    1.34402352602103
O          -1.34529046846368   -2.12426816436266    0.54078639992536
O           0.95599395688242   -2.24454532456906    1.36075942292644
H           1.63382210722493   -1.62755213024991    1.62881755537898
O           2.55900967486388    0.42927663693420   -0.35713784092616
H           3.19470539867337    0.35165549666273   -1.07034409534508
H           1.85437051555546   -0.22873880428596   -0.53905387922617
O          -2.73675805602260    0.04738198357629    0.00543744925807
H          -2.65336542707113    0.49855435927459    0.85088932606787
H          -2.40255478448958   -0.86412259988550    0.17057469195854
O           0.49068541375245    2.08861996446739    0.17029182995187
H           0.21278635181452    1.42219565863533    0.84139601467626
H           1.40605765063719    1.81948331876606   -0.04026468118525
O          -0.86960144667563    0.86263264790031   -1.51240160523872
H          -1.74059947178655    0.64238392398350   -1.00615201925538
H          -0.32234045739001    1.54737731016054   -0.88183204036775
H          -0.32126657687991   -0.00401157144428   -1.38030000646964
