    19
        -40.92079098
S          -1.33408870718378   -0.42508961989143   -0.49641215956116
O          -0.06146033676033   -1.10345290143435   -0.69986660330792
O          -1.36517269324730    0.25792351263754    0.79826609824631
O          -1.72776260571674    0.43327002987712   -1.58387388418665
O          -2.40765372045629   -1.58428566955163   -0.40311209490573
H          -3.23727178409997   -1.11728940194761   -0.41551283427210
O           1.01174095440531   -2.15648434063306    1.44961341416964
H           1.82989769542525   -2.58777799365891    1.19478430056604
H           0.53010423839634   -1.95150314627714    0.61362208243112
O           0.85552669555820    0.36052851499559    1.88684116912532
H           1.01641288894313   -0.64000077599114    1.94480705816378
H          -0.14051574318883    0.40081743203412    1.54442458247306
O          -0.01779983308170    2.43563756628674   -1.35802694366751
H           0.01073495924972    2.89516921732328   -2.19939523609348
H          -0.72889564876974    1.76341595914994   -1.43787144837569
O           1.79237065541097    0.78605091984860   -0.38342958018751
H           1.29541919565696    1.56120144091315   -0.73607834472934
H           1.38179678814260    0.65668670368444    1.00783185417279
H           1.29661701130769    0.01518257263925   -0.72661144005484
