    19
        -40.92343650
S           0.46529001616684    1.61707899586817    0.11905223487765
O           1.03470132499827    1.12498287005392    1.35533138409160
O           1.30885786137588    1.30056573690609   -1.03447949484446
O          -0.90551993382126    1.17395847937374   -0.07992413516819
O           0.41235792326594    3.18901439124546    0.21004616648355
H           1.32751916695836    3.42264474856326    0.33006383826657
O          -1.41123721780852   -0.91176366612095   -1.66643307678416
H          -1.37986004235945   -0.00966827176645   -1.28531940594491
H          -1.86444653549180   -1.44695718717952   -1.00561590729523
O          -1.60500293099679   -1.01014801539758    1.25706163796921
H          -1.41902748683136   -0.12720763854481    0.86763240872600
H          -1.97591856319784   -0.84735752765513    2.12536760426397
O           1.03368274389250   -1.47492608490615    1.06066514982954
H           0.07634547283566   -1.58489373347096    1.23945484802404
H           1.21319540088508   -0.53898815474869    1.31678195178710
O           1.11012367471765   -1.14642945303561   -1.40855794852011
H           1.30510601733738   -0.11961096025047   -1.36866289692460
H           1.16067580397320   -1.42397558973157   -0.37763291103830
H           0.11315729409603   -1.18631892919709   -1.65483145780233
