    19
        -40.91941567
S          -0.06244300942016    1.49427284309596    0.61343024511121
O          -1.48379750414874    1.23862924131321    0.35130964100116
O           0.43630215577174    0.62229604412575    1.66158151341947
O           0.73300528176675    1.44328968827544   -0.59266272179208
O           0.02076653266193    2.97130316870607    1.15322347021828
H          -0.48952533932674    2.93504961469765    1.95626518520500
O           0.00665363442102   -0.35954169812668   -2.31173726540735
H          -0.31274922166409    0.06798626879974   -3.10856369791660
H           0.35441446090557    0.36300100640359   -1.72711854801432
O           2.06408192816773   -1.04090752879108    0.13533032063418
H           2.19533568610257   -0.69244301863066   -0.74884847494981
H           1.76984774946342   -0.29140237233066    0.67532028906220
O          -0.19724337563218   -1.93797391892122    1.25315467535331
H          -0.07558968833013   -1.07418860126321    1.70113770724777
H           0.66845804527934   -2.07534845657321    0.82134301403822
O          -1.68832640050074   -1.06273313441466   -0.54154378892712
H          -1.06961141002143   -0.94449663366040   -1.34489518340252
H          -1.11991638811837   -1.57101201479925    0.20924113172934
H          -1.74966313736435   -0.08578052790480   -0.15596751260525
