    19
        -40.91966053
S           1.44298788438102    0.40759440515733   -0.82642455148594
O           0.56728102916991    1.47942718873776   -1.27437641249169
O           1.88804412254676    0.64237643905713    0.55592298990356
O           0.86541870526240   -0.90393725515243   -0.98617151754318
O           2.74087872701376    0.46789423597349   -1.71519483209899
H           3.05809130868416    1.35405355441848   -1.57066657269880
O          -1.88376682365019   -1.13520295621033   -0.90217317892578
H          -0.99486211029434   -1.05555572106541   -1.28509880651581
H          -2.13705978156977   -0.24182670301380   -0.64281982457279
O          -0.42455955878641   -2.20132624179690    1.02412553857148
H           0.32189859411249   -2.17898632944804    0.40247630918698
H          -1.20060282169563   -2.03405881638778    0.43595412577491
O          -1.48594939995642    1.43667964234484    0.25580673615371
H          -0.73276751038171    1.50878268034663   -0.39994617497498
H          -1.78843620503925    2.33206773793259    0.41884875315452
O          -0.07513107338682    0.09058774870627    1.94501105169847
H          -0.24845276294264   -0.93563446023070    1.67478735723830
H           0.84030088428270    0.33351450953974    1.46090169695374
H          -0.75331319774399    0.63355034106996    1.42903731267958
