    19
        -40.92343657
S          -0.33789554916074    0.07498019254569   -1.65119870158519
O           0.31214682398663   -1.21760880847737   -1.60949645767487
O          -1.73273073927507   -0.00124651146994   -1.21421471924995
O           0.39971653315186    1.09416264234315   -0.92148618440424
O          -0.37146462270015    0.54498421776077   -3.15449885089964
H          -0.88094554121157   -0.14011287077717   -3.57593439565743
O          -0.33899919406037    1.74568335980580    1.55863437159295
H           0.50356578798156    1.54725392801190    1.98197124139861
H          -0.14022513245402    1.78003983343885    0.59973094651232
O           2.06543401713048    0.18950138096899    0.93704065366912
H           2.95862752622794    0.02594099898585    0.63112255110074
H           1.57019217610538    0.54188571789839    0.16481936366826
O           0.31275213166149   -1.84610296146518    0.92968848552157
H           1.05674136277349   -1.25437394474191    1.16849167700086
H           0.31833426338341   -1.84183724200521   -0.05723251006124
O          -1.68565779844118   -0.39015473406473    1.23870236911154
H          -1.25392204447044    0.49655028961866    1.52820678140572
H          -1.86615541155735   -0.24551812172646    0.21903509726164
H          -0.88951461909997   -1.10402736665539    1.22661828129014
