    19
        -40.92079116
S          -0.35204709349310    0.58539843241346    1.31918858330122
O          -1.61637889914273    1.26599165825668    1.20819482866260
O          -0.49023570114741   -0.87076815427804    1.25324890018312
O           0.66504417736178    1.05762173980555    0.38990942453410
O           0.22655962265997    0.90228723343695    2.75774889550436
H          -0.50342238584880    0.70589235841407    3.33658996463157
O           0.69814532370332   -1.86467374966304   -0.67715143392027
H           1.62972509473370   -1.54351601717937   -0.43391897371954
H           0.14313610679394   -1.58622382744379    0.17469814016726
O           2.73779207754327   -0.52133976405584    0.08877637375343
H           2.07857002271855    0.16704176740228    0.34265602682246
H           3.34560072901218   -0.10448998277057   -0.52534171911764
O          -2.54320178950218    0.36176319858837   -1.09547819801522
H          -2.28929099841518    0.66522390308396   -0.19689863845562
H          -3.20723919981124    0.97932507983413   -1.40782530713258
O          -0.07627722225638    0.10833395403146   -1.98853416867824
H           0.35276990083246   -1.14558554494060   -1.38484008070942
H          -1.05565344231032    0.13727761149551   -1.87712309439635
H           0.25640366663408    0.70044010350482   -1.28389952341281
