    19
        -40.91836639
S           0.07113139648841    1.60627172020377   -1.14127878804902
O          -0.36811801232679    0.48311861567578   -1.98443030716173
O          -0.99584745910330    2.04296284232788   -0.25961729273740
O           1.30729638801783    1.32004085888150   -0.45039620188200
O           0.36434401862708    2.79684632592642   -2.13381709774143
H          -0.50386460721283    3.00708208393499   -2.46388619948982
O           1.29157339179399   -0.23085729386286    1.59950156455998
H           2.03432394197115    0.01341422334082    2.15419555722977
H           1.33603433187288    0.38077048816719    0.81218372558113
O           0.88941041898885   -2.54155220969157    0.30475821765277
H           0.74047618938289   -3.23495898591108    0.95034822790571
H           1.18527998580048   -1.74479044627808    0.79862839815204
O          -1.21661735153666   -1.40609195394578   -0.65433409440644
H          -0.39815957827568   -1.95381725487701   -0.41488082304493
H          -0.87833622786561   -0.63311058389976   -1.31697129816706
O          -1.44114663393423    0.06434184700678    1.35941386039118
H          -0.55966453580425   -0.02259137960781    1.75895295041793
H          -1.41151021411309    0.91794963989409    0.85731634305093
H          -1.44660545277660   -0.86502853728515    0.22431325775149
