    19
        -40.92079094
S           0.71739574211892   -1.10316874740230   -0.68961556078622
O           1.29314814659106   -0.08985716696457    0.18358887108148
O          -0.64783056065715   -1.43814601754289   -0.27961789748608
O           0.81316922806109   -0.79763251179261   -2.09371387539158
O           1.57944785662538   -2.40520358508472   -0.43202439087718
H           1.26234902588242   -3.01353501266975   -1.09221487938140
O           0.60411147011038   -0.25744583226993    2.70874991496409
H           1.05436643141605    0.43978531361729    3.18975549789796
H           1.02828912236113   -0.30468607971767    1.81949431772941
O          -1.56106199682168    0.13336808080342    1.40058787520946
H          -0.85911508875754   -0.02267773062638    2.11693087464326
H          -1.31232100449895   -0.60342267088244    0.68889586495193
O          -0.92408986755515    1.17659404926675   -2.35615302872779
H          -0.33141665763004    0.39418994284950   -2.33518444967135
H          -0.71032772401966    1.65178575267896   -3.16133176646158
O          -0.42876607741401    1.94433931456534    0.11612836265006
H          -1.22914027905793    1.01508260287328    0.90037641177677
H           0.40149309089731    1.42637802963603    0.12732228116218
H          -0.74970084759623    1.85425225867692   -0.81197441330321
