    19
        -40.90710329
S          -0.91218717014205   -0.13951335674988   -1.53215819008299
O          -2.05771507366052    0.61992659739318   -1.12102036864904
O           0.35899392604179    0.53688808674535   -1.02084704076106
O          -0.89440359277366   -1.53318953356040   -1.24600952819545
O          -0.75785606325045    0.03273099655872   -3.08912422886164
H          -0.93456867639015    0.94844731258139   -3.29706607866972
O           2.54183158688339   -0.29468723879495    1.50331567644430
H           3.02736330056227    0.22909942518778    0.86351685902337
H           2.23871375480105   -1.08862107967876    1.01437783473990
O          -1.77701181591780    2.20332440650741    1.08203200886984
H          -1.94028842263601    1.72181829463285    0.24892049158800
H          -2.61237989821583    2.19705987439406    1.55332087676876
O           1.38446748790513   -2.30737323440218    0.06648505831591
H           1.07312353461491   -3.01811611830998    0.63072881834337
H           0.61220060912386   -2.03773883247879   -0.46155434397881
O          -0.02423399297546    0.23428804535744    1.39930022692716
H           0.89082629288995    0.21408762440650    1.76302543546265
H          -0.48385092297032    1.07123415640645    1.61249933927081
H           0.26697515597182    0.41033458379728    0.03025713335062
