    19
        -40.91941575
S          -0.10967288491852    0.84036161974020   -1.37795984632002
O           0.23322283589824    1.78206470458460   -0.32776800704309
O           1.02240636027375   -0.04477772046383   -1.67791379038925
O          -1.32235420359097    0.10263810545065   -1.10384949736246
O          -0.36793976601421    1.67222619366642   -2.68990366166015
H           0.45113153105251    2.14262905217718   -2.80998227068034
O          -0.99073223140370   -2.10570170218136    0.21631685278100
H          -1.21964345488547   -1.28862419220677   -0.29827211597727
H          -1.23527274819294   -2.85057241116834   -0.33590410656582
O          -1.33096260388609    0.76034275719923    1.73473436426306
H          -1.95952986845929    0.11087098042152    1.41300754741881
H          -1.06028377228651    1.27533688820506    0.95918421225922
O           1.34050954169947    0.59817875622180    1.79303747725619
H           0.46110476591862    0.55273241917746    2.21644362808235
H           1.19014780473260    1.23236802377772    1.06047607263790
O           1.46225066269492   -1.41930926641911    0.33496759182669
H           1.40045056357612   -0.89263260869637   -0.57402715838173
H           1.50056215249792   -0.62989617962241    1.05615278103910
H           0.53460532529077   -1.83823541986171    0.41125992681654
