    19
        -40.91302030
S           1.91393109647281   -0.44480371393872   -0.38023594957100
O           3.01696256839869   -0.87910508033673   -1.16628020136251
O           0.64159821370860   -1.14135756902355   -0.65470909101978
O           2.14808634944315   -0.34249048739708    1.04825070635245
O           1.58091823011316    1.06377335235158   -0.86400507832362
H           2.46015965011771    1.42044424220100   -0.92519369238079
O          -0.80465767863598    0.42407290634408   -2.24806794432668
H          -0.23992860730052   -0.25588703634051   -1.82529269619429
H          -0.26777723644245    1.22087189878447   -2.24353360101870
O           0.25607236604328    0.48437050755637    2.54400140899572
H           1.06147516863077    0.26029024664120    1.98929067615803
H           0.44984663874747    0.16587630115247    3.42808934936302
O          -2.68024990217694    0.41576301120110   -0.42531752209798
H          -3.44009158966016   -0.04899682255622   -0.78081952322926
H          -2.03472748706773    0.51572829686465   -1.17955992998804
O          -1.14982898476847   -0.96834247690309    1.05042747251644
H          -0.37859174094971   -1.13840143284565    0.34712903927332
H          -0.69174299794635   -0.35288413727044    1.75234833498895
H          -1.84145404672295   -0.39892200648884    0.53347824186286
