    19
        -40.91908973
S           1.06994375554565    0.18569713102607   -0.52275957844161
O           0.48303689622893   -1.02001848630457    0.13491562873378
O           0.15060781670446    0.67411250399545   -1.53268856460940
O           1.41953945574093    1.18131716087975    0.46048370089912
O           2.37664968688696   -0.29383665373373   -1.21106131002974
H           2.10140129285507   -1.09461844150899   -1.70430173167719
O          -2.18329746953137    1.15186577313118   -0.58608690839681
H          -1.28454511508364    1.07653308098953   -1.02097081756644
H          -2.81165646696067    0.80604175754843   -1.22349111430494
O          -0.09545858629069    1.58294713619836    2.52223865480933
H           0.61488617490173    1.46915084063997    1.83754629222892
H          -0.41817724679631    2.48126822268277    2.41944564088115
O           1.21295469859364   -2.56643054495283   -1.87759851318988
H           0.73282905402310   -2.21287340011228   -1.10458687106205
H           1.67806714853940   -3.35122168164407   -1.57836263220776
O          -1.47289304601903   -0.21532488925410    1.41140537139700
H          -1.00953489532178    0.49389963030492    2.01058608102212
H          -1.91704711496797    0.32553356867170    0.64785909903779
H          -0.64730600905868   -0.67404273854437    0.91742755246989
