    19
        -40.90710326
S           1.41820961878442    0.29068844537377    1.05046063371586
O           1.11885390668072    0.12309519857678   -0.43853962019296
O           1.05688676927840    1.61543634477844    1.46580381001369
O           0.90750630717272   -0.80804154070042    1.79647415433750
O           2.98921822223140    0.19514572425265    1.07001510402603
H           3.33248856611596    1.01308308141189    0.71481660350639
O          -1.34487736802601   -1.60844344566475   -2.10059787301638
H          -1.01704837672943   -2.10756303916037   -1.32295551573423
H          -0.59405362314751   -1.53640735065615   -2.69263917329398
O          -0.82707956291018    2.91523986373024   -0.01764065782904
H          -1.35159693997370    3.44975639239930    0.58163359804304
H          -0.09938171944897    2.55128009861573    0.52138595068089
O          -0.34764596703121   -2.66067741347311    0.21302874962792
H          -1.04262846760911   -2.99255940146379    0.78512585070199
H           0.16085848914684   -2.03462902413084    0.75840398760757
O          -1.33917986833916    0.32919776334534   -0.33413640910059
H          -1.44349974619599    1.29055633357622   -0.48269101391580
H          -1.63448725184260   -0.19751854821654   -1.11224931403415
H           0.05745702180950    0.17236051740066   -0.45569886508152
