    19
        -40.92315259
S           0.40103188342761   -1.11499368678275    1.21611143273271
O          -0.88728144504002   -0.42363249570144    1.13336779525817
O           0.55372305688889   -2.03020479908977    0.08226403377717
O           1.49724883059258   -0.19758643334038    1.37230331349947
O           0.35013282274518   -2.03366562696616    2.49391118957916
H          -0.17337565183991   -2.77234353003666    2.19920908717578
O           1.59221068873017    1.22341225744780   -0.83210097763515
H           1.83077242564226    0.73414507932140   -0.01226729581927
H           0.84986574492134    1.79643337024775   -0.54311446648835
O          -0.60192613121072    2.11923198700049    0.41830098557050
H          -0.71353965271558    1.22710429448793    0.81575607513756
H          -0.43774569498990    2.71641355440306    1.14949965597808
O          -1.91157482666241    0.09456661770719   -1.26000750469285
H          -1.73952173613754   -0.22124569843323   -0.34570008634563
H          -1.96042718942384    1.05360069849742   -1.18734621028131
O           0.41074863134065   -0.64819372499437   -1.97905238687998
H           0.98668974133276    0.18160026281476   -1.62933996176775
H           0.52467284074046   -1.34554075760122   -1.20916806567160
H          -0.57170432835006   -0.35910137897692   -1.88262660313138
