    19
        -40.91376543
S          -1.12949994344574   -0.22166671735882   -0.48538115676305
O          -0.87743847332782    1.21164726046257   -0.54636535488475
O          -0.40160903405096   -0.90528184793387   -1.56388518592632
O          -0.84646523071155   -0.81067116800048    0.80122631641900
O          -2.65665162033799   -0.43936694278817   -0.77284358256838
H          -2.88812336123422    0.16451996056950   -1.47335832424792
O           1.52022017290961   -1.80090815870081    1.28614758711010
H           0.56412030367494   -1.56560076738875    1.20091784238928
H           1.85176063865069   -1.30685060253426    2.03972099350935
O          -2.41889468588686    1.31133812952684    1.75308823685838
H          -1.93348279535135    1.65102901540068    0.99405430847847
H          -2.11157432794857    0.40532827952030    1.85145503972521
O           1.69317321008524    1.56481899451037   -0.40565245794178
H           0.70136251182586    1.52845927992059   -0.39571423930836
H           1.92912195168152    2.28633105307595   -0.99259463105046
O           1.99857143246958   -0.87754025457410   -1.01727677041524
H           2.05133601224096    0.12643921777908   -0.81258986323054
H           1.96361285240952   -1.34386226993654   -0.09471912744180
H           0.99046037635131   -0.97816246151806   -1.36622965070243
