    19
        -40.92174062
S           0.69881300536345    0.50695745598300    0.24154842131952
O           0.46220530417484    1.21038730064738   -1.00140316869922
O          -0.55316807074528    0.52594232204143    1.09921715342022
O           1.18299648825371   -0.83322437383182    0.08543706348186
O           1.71797241048384    1.31139021513518    1.07727353188869
H           1.48943432044055    2.26621062206226    0.93521316340174
O          -0.19939902433110   -2.97548385779756    0.94977614407353
H           0.43520312875660   -2.31052468610779    0.62162352521816
H           0.05234188169217   -3.16818818067502    1.85442561631651
O          -0.84213614532338   -0.91137294515076   -2.06138345197791
H          -0.41160427748470   -0.05697302935043   -1.89307697632668
H          -0.13906412793726   -1.56605448451894   -2.04765841532791
O           0.89386974041015    3.57500289856244    0.10903233384411
H           1.53248794709783    4.11000278067611   -0.36912434141912
H           0.52843333617826    2.93296392066901   -0.52750662864634
O          -2.08255360442471   -1.22651550840869    0.26579535525325
H          -1.59953305945251   -2.02708756809065    0.57582089799636
H          -1.29372068442567   -0.20385726949215    0.78059293697678
H          -1.87257855872672   -1.15957562235084   -0.69560317080409
