    19
        -40.91039631
S           0.27252755903657    1.15987490999768   -1.52630024843861
O           0.51337933265829    1.91911812056525   -0.28003006591842
O           1.39420269626332    0.29080315422043   -1.81966665743091
O          -1.00806232097671    0.50045234907783   -1.50068697336574
O           0.21708736885108    2.24446047246753   -2.66810361264422
H           1.11838932099054    2.54669594600241   -2.73214769169300
O           1.56538836949485   -1.30137123472985    0.20888294909647
H           2.49004513731297   -1.51136574500114    0.35365479324494
H           1.52290564899250   -0.77457069239415   -0.63219879417342
O          -2.10782325281340   -0.09873778451110    0.77054112828268
H          -2.83264492471399    0.50878146127435    0.92773760782219
H          -1.79055403291048    0.07470450915866   -0.15286116918146
O          -0.66357779594261   -2.42500602489348    1.61926428674534
H          -0.00238757829851   -2.44954040075468    0.92084850464864
H          -1.44108257901274   -1.99561170746313    1.25018463086075
O           0.26129623316091    0.40283564181151    1.62538569558276
H           0.79990000633915   -0.38363058298701    1.27504143686051
H           0.40384773174435    1.15928271620429    0.84847796535534
H          -0.71283692018479    0.13282492195904    1.51197621434703
