    19
        -40.91892659
S           1.38421892656606   -0.31302844289372   -0.21034131169489
O           0.87570578350559    0.99529803131791   -0.54022173550783
O           1.98991814287598   -0.41382281575453    1.09992200101730
O           0.34920516118746   -1.34597309567590   -0.40369814790275
O           2.51099849534944   -0.64524382368679   -1.26920965382030
H           2.99700205424282   -1.36759954091402   -0.88241588796358
O          -1.82958058895057    1.50438116962743   -0.55743571164107
H          -0.94443770953037    1.86203463582508   -0.38455960163430
H          -1.73619580775744    1.09487891425598   -1.44759145232671
O          -0.70031857399510    0.14530009578345   -2.56013142039229
H           0.06181962315271    0.52257520578697   -2.08937780250329
H          -0.66758351153708   -0.79542818622110   -2.36331131403425
O           0.04007490637801    0.24638222639657    2.68492154251265
H           0.15698803914748   -0.23189419094971    3.50872624285207
H           0.85709605888728    0.08128305920318    2.14811650753488
O          -1.59468979999431   -0.51767106267667    0.89559483377062
H          -1.82770875137648    0.35334679726722    0.32634941976948
H          -0.84204269811957   -0.98235098478506    0.32602192516587
H          -1.08046974008051   -0.19246799196857    1.71864157687235
