    19
        -40.92343663
S          -1.22170665764895    0.98394290246728   -0.62080357095946
O          -0.33850293459956    1.08844844795566   -1.78319514993466
O          -1.93470322248969   -0.27543121827429   -0.59576165956088
O          -0.51071128370219    1.24742535769547    0.62021477339283
O          -2.28797740411702    2.13377349304728   -0.77190986178279
H          -2.70653359101732    1.92341359664768   -1.60086235084810
O           1.55024971930498   -0.47279913367406   -1.37867623037550
H           1.96111527427295   -0.01230394344886   -0.55696556721181
H           0.82173422706377    0.20768326067765   -1.69475988037661
O           2.10413044522243    0.74082407734683    0.78920508887591
H           2.05208637204148    0.13154057642508    1.53389173825192
H           1.23655318744749    1.19574163582395    0.77135947774313
O           0.04655959638062   -0.88865016521961    2.09517235344193
H          -0.27089569319845   -0.07481106275805    1.64509822584307
H          -0.62353371972315   -1.11661560435558    2.74093188780125
O          -0.04686665302932   -2.06488312015334   -0.31844785063979
H           0.95624727878248   -1.27241783546577   -0.98996598388416
H           0.08670610347661   -1.90764584197765    0.63965113947717
H          -0.87395104372301   -1.56723541310240   -0.52417658882275
