    19
        -40.92343668
S          -0.48197020377715   -0.64054221968064   -1.48415359407425
O          -1.55832399305414   -1.14425959395984   -0.65788657100028
O          -0.21317733388745    0.76976451929844   -1.25185412814722
O           0.73010655688523   -1.45083032540267   -1.35552207560105
O          -0.93659549323672   -0.76162471015844   -2.98765783176723
H          -1.08043540160759   -1.69748362475389   -3.08786027811143
O           1.80328518419623    1.49286760410096    0.33917069542942
H           1.27648598489040    2.00676006188050    0.96114541103358
H           1.22323682893913    1.36400169841540   -0.44001281388826
O          -1.02136281252943    1.71488941271556    1.09369699163970
H          -0.84364123885631    1.43007712781961    0.17008447996228
H          -1.91126509226955    2.06996551429409    1.09830777801837
O          -0.66842449995005   -0.85678757873895    1.78526825221411
H          -0.83591799498574    0.10792165223416    1.82871998888555
H          -1.13121078688227   -1.13734609311332    0.95996938611105
O           1.65771111629526   -0.98533227911507    0.90098045331355
H           0.72012410846790   -0.99794039940677    1.41482733425015
H           1.38474156713715   -1.29253777605117   -0.06058164675739
H           1.88663348422517    0.00843698962221    0.77335816848920
