    19
        -40.92315431
S           1.52162881553468   -0.69083665030053   -0.30060866945961
O           0.25148094533157   -1.39146565323208   -0.49901253553637
O           1.64034333767660    0.41579451399888   -1.25362100848560
O           1.71217822968437   -0.29844806289712    1.06986178103038
O           2.67062924073488   -1.69706553606178   -0.68425383447217
H           2.68929432506648   -1.63715333058664   -1.63433765499910
O          -1.48984346728230   -0.86927941169324    1.43807584973296
H          -0.81609191054778   -1.18088112274951    0.79359145311200
H          -1.40886688782856   -1.44048401358881    2.20316094993817
O          -1.85318975757359   -0.01596586736936   -1.34990143014503
H          -2.44264939228552   -0.18899779727084   -0.60816793108042
H          -1.11274583438244   -0.65223225081788   -1.23991274868930
O          -0.29236842028711    1.92466783477578   -0.83992271710164
H           0.57869199291590    1.41134563881430   -1.10205446549859
H          -1.03648965649055    1.27843955981665   -1.13441990420051
O          -0.16572585401008    1.45399958929662    1.60426764767901
H          -0.84458607289643    0.75498619751071    1.72075493408065
H           0.67823069420270    0.94774765540535    1.58808251597965
H          -0.27992032761620    1.87582868698401    0.22841777780440
