    19
        -40.90710331
S          -1.44045779964034   -0.88840236060541   -0.57875440277836
O          -0.26127583349029   -0.12009347271115   -1.17376352307051
O          -1.00792746620785   -2.19701402402712   -0.18061487904576
O          -2.13355699065353   -0.09262689173495    0.37566881274487
O          -2.37535662204787   -1.05517296887815   -1.83403722025621
H          -1.98403975842052   -1.71894508629834   -2.39912015592047
O           1.64421205539688   -2.51860921887426    0.36891149048122
H           1.71824839233459   -3.15140297214936    1.08589929029114
H           0.69973333974082   -2.50735110572313    0.12316704387180
O          -1.02403598814694    2.39640471083207    0.67312589364933
H          -1.45379848038088    1.53811872573167    0.51001558087746
H          -1.18044443018364    2.58888283228742    1.59991130344169
O           1.63257101300601    2.47823643422919    0.04821595959275
H           1.66844863237446    2.52106012221155   -0.90904280540226
H           0.68553137118305    2.58440513237037    0.27879479118674
O           1.12528531793890    0.03802258446147    0.86285540936659
H           1.64414808951688    0.86091849272858    0.70912718637875
H           0.36664348262026    0.00829514076369   -0.32610404018793
H           1.67607167509871   -0.76472609459806    0.76574427481531
