    19
        -40.91836643
S          -1.66423634272252    0.84819609912686    0.63312689403793
O          -1.39028914940567    1.75706025560681   -0.46482939334602
O          -2.00846003783429   -0.49251086466734    0.13420596505193
O          -0.61352499017409    0.80960335053490    1.62398909785361
O          -2.96008597073950    1.38089491355181    1.35826580161013
H          -3.56532835162548    1.50293214763314    0.63311243709939
O           0.74704618738981    0.85134309368364   -1.62544625062947
H          -0.05048470165824    1.35228711344303   -1.31788701647970
H           1.36456271471334    0.87789706351881   -0.87560518082623
O           1.61896871790554   -2.16197889061749    0.24443296860273
H           2.43681910343485   -2.43990236891884   -0.17228321778544
H           1.77045042732237   -1.26071286544463    0.60633424441300
O           1.81835734479976    0.43253052633769    0.88207570194550
H           2.38749273669752    0.83634800218138    1.53943557037391
H           0.88743426012511    0.58639559929720    1.20734784070163
O          -0.27093133524946   -1.41827417351407   -1.34303440488627
H          -1.08584447131268   -1.09554408688799   -0.72467882069417
H           0.18187578949838   -0.50234812207204   -1.61459190252840
H           0.39617809882653   -1.86421679279367   -0.72397031450722
