    19
        -40.91892643
S          -0.33065603353257    0.58108713833783   -1.26866692817554
O           0.66497227771477    1.22443268342289   -0.39115823806136
O           0.30735895653466   -0.23526667119702   -2.27897678413842
O          -1.33917310338541   -0.09811760941093   -0.49356266559666
O          -1.05558342319633    1.76791197090890   -2.02160391966312
H          -0.45160823723982    2.01502378870596   -2.71570498398468
O          -0.86563317544241   -0.84797138342972    2.11004730847264
H          -1.10207879123213    0.09595605182432    2.25691139472409
H          -1.31620958922791   -1.06163516333436    1.27758965495583
O           1.35673439954044   -2.15703913620418   -0.88017638788018
H           2.15532076715172   -2.44350478298655   -1.32882288033663
H           0.90725514879609   -1.51864594816230   -1.49125019886619
O          -1.36336419018195    1.70813849404058    1.51339542076120
H          -1.61905241213188    1.23571089646955    0.70349638511782
H          -0.55476450805875    2.17316286971598    1.27945835546300
O           1.41713775088085   -0.59240863023041    1.12119316340254
H           1.19548216269824    0.25360692633236    0.53706092673687
H           0.50865304236933   -0.76659147948949    1.65185941333079
H           1.48520893795276   -1.33385000531835    0.41891097373742
