    19
        -40.92315388
S           0.71406295640998   -0.98813770922634   -1.18140583439600
O          -0.73210309744638   -0.84582562799251   -1.00113717603896
O           1.29045542348622    0.27848942429336   -1.63998004175518
O           1.35336604029114   -1.52596510993792   -0.01093654440909
O           0.93470203367274   -2.00211833023698   -2.36581358264628
H           0.78340264377277   -1.46060935190812   -3.13421816574998
O          -1.70441815044880    1.50989018930400   -0.25991340589739
H          -2.12733222385712    1.23516333883363    0.56058534363384
H          -1.48849547709188    0.67301578211524   -0.72721643241028
O          -1.40749963081855   -0.77100382273108    1.56734102146493
H          -1.19152113641969   -0.93609180312251    0.62265832679241
H          -1.54084862193005   -1.63336847330739    1.96324887350306
O           0.76834902273057    1.97498545976011    0.10077411308425
H           1.08940914860632    1.37165093100042   -0.68945399561193
H          -0.25348300116823    1.98311083662007   -0.01835168291939
O           1.04549104689750    0.25911366769162    1.88766291334093
H           0.95004769791897    1.35779602801855    0.95450443458118
H           0.12034602551761   -0.02038489766857    2.05752041895660
H           1.39606930983228   -0.45971054137330    1.31413139655878
