    19
        -40.90710334
S          -1.46817851690638    1.00432435454553    0.18776826579877
O          -2.29737263993437    0.27033983001364   -0.72425142852965
O          -0.64038739036789    0.02875567001228    1.02311516557581
O          -0.64906253287275    2.04201815218308   -0.33831009802673
O          -2.40553450320331    1.64018308335371    1.28071547843335
H          -3.06204818902318    0.98612215458704    1.51351588472415
O           1.97866588609062    1.78008733688615    0.39788929415733
H           1.03366746998014    1.90569835163437    0.20017219914729
H           2.44779160714608    2.12761711249523   -0.36343595709037
O           2.69654955913415   -0.79577783931915    0.94975628834570
H           2.56016100918820    0.16379190492571    0.80193794082720
H           2.37692685451668   -0.96521113606826    1.83777502950580
O          -1.47686525500338   -2.23892959575450   -1.40935423799650
H          -1.87727208892294   -1.38376234064529   -1.16247786571387
H          -1.72151673603911   -2.38521226298878   -2.32517319357644
O           0.74061107106841   -0.91536775649575   -0.79270995151757
H           0.19579036368072   -1.68731080414267   -1.04666875196772
H           0.00512985132191   -0.39316222783718    0.29188663197256
H           1.56294419016558   -1.18420398741109   -0.32215071407326
