    19
        -40.92136407
S          -1.26989587084906    0.38315086627817    0.40354295374292
O          -1.47599258951803    1.49134285413184    1.30266957812386
O          -0.71416018808111    0.81070793845575   -0.89263604458887
O          -0.49451573245302   -0.70105202371806    0.96286967685519
O          -2.70145887217458   -0.21206435995934    0.06081439174673
H          -3.28982511866281    0.53350850985807    0.13957466846036
O          -0.39773478259872   -1.57813156104072   -2.07586471335408
H          -0.60444395669356   -0.66763211972203   -1.79221674598121
H          -1.14943856222514   -2.11376857524437   -1.81673846574108
O           1.08812659330114    1.48266143049725    1.91011823585892
H           1.13506624250669    0.69445103655356    2.45835560217856
H           0.12703020492903    1.65040986812702    1.78061690909285
O           1.62002220747799   -1.54375207487629   -0.33523894452528
H           0.89666815614715   -1.46125061793798    0.32751812283648
H           1.13054043451450   -1.77017305687840   -1.15670195164817
O           1.75892829251037    0.92542905380817   -0.48819908446107
H           1.68009611343474    1.22584542209107    0.48746614291108
H           1.87205922607592   -0.16288131262696   -0.46144254434128
H           0.78892820235133    1.01319873220401   -0.81450778716692
