    19
        -40.91892669
S          -0.73008364128416    0.62518500194550    1.06485312064806
O          -1.28123366403252    1.84903394187931    0.52425755484893
O          -1.27891214668099   -0.55917117345972    0.37810348989493
O           0.71056625967788    0.57811602207984    1.10300040465366
O          -1.23040821751318    0.51180787498501    2.56068115166634
H          -2.13604872627274    0.80621379150286    2.53228190304904
O          -0.30099436512784    1.91149669402261   -1.88108003665961
H          -0.63406823708835    2.01287217458334   -0.95276253246534
H          -0.94002323606722    2.35052407457129   -2.44671279095408
O           0.86287539631683   -2.10454072091461    1.37870291456541
H          -0.04899205275645   -2.31068337597275    1.15327489029289
H           0.85309185559564   -1.15961543785829    1.60579600299770
O           2.12771241520541   -0.96194613182972   -0.67934548534904
H           1.89133709019737   -1.65783986250881   -0.02516470946926
H           2.10514242348303   -0.14701044570678   -0.15282815456290
O          -0.08426544820753   -0.61897506475784   -1.79493186935585
H           0.90444906176848   -0.81306851960293   -1.44602550879765
H          -0.66609606776336   -0.69532884839619   -0.92179906786342
H          -0.12404871943100    0.38292999543074   -2.00030128714052
