    19
        -40.90710321
S           0.06386254736695   -0.69643861866674    1.64607923509074
O           0.06485030253886   -1.18937065951298    0.19980112814121
O           1.37024793021286   -0.21241920389752    1.98828941994040
O          -1.05085285793456    0.15340926067902    1.89066926068652
O          -0.17202108209236   -2.03665178284129    2.43707608016579
H           0.64237046058866   -2.53567387221064    2.40863405220545
O          -2.62826138632587    0.48128179894328   -0.32713907723266
H          -2.10318410704908    0.30345105596491    0.47328133497121
H          -2.95231954526410    1.37868225965673   -0.22649599274584
O           2.96581978248324    0.62001144187650   -0.06140395104051
H           3.48582361284018    1.36054697239297    0.25669012762129
H           2.48977039525145    0.27723731371648    0.71861589502294
O          -1.27751479330975    0.13957118927928   -2.67519277230708
H          -1.21665155671601   -0.80938428917415   -2.79900930303312
H          -1.87485660377710    0.26474643807461   -1.90780613649644
O           0.47669126368854    0.97483953080572   -0.91447282060724
H           0.20912580364112   -0.28528404749274   -0.33986556592953
H           1.45325532935172    0.96179319678791   -0.97261774329098
H           0.05384451459884    0.84965204536432   -1.79513318107670
