    19
        -40.92071395
S           1.45384293209104   -0.10647013693662    0.26787454604844
O           2.32166544838390    0.78735847229721   -0.46399225901287
O           0.48767233403161    0.63404657985190    1.10300427765531
O           0.77038602323068   -1.07347815489678   -0.56004261640041
O           2.36925974829537   -0.90450383020842    1.27885614542896
H           3.07907126501503   -0.29831616300328    1.47095032998324
O          -1.85436360780658   -1.14640868647133   -0.48996761828099
H          -1.98863390850759   -1.25456922348337    0.47539395609006
H          -0.90857664813313   -1.38962255910811   -0.62041207665689
O           0.56125648178087    1.12144155612705   -2.37277450125894
H           1.33419234289701    1.12567126964203   -1.75995275706823
H           0.54301147776493    0.23481203476196   -2.74485788140210
O          -1.46320868330864   -0.89216267355473    2.13282528568297
H          -0.66479432392505   -0.38113974607822    1.89262445076450
H          -1.87680322870733   -0.42763552239398    2.86193038107015
O          -1.25703585852349    1.25233918689690   -0.60305687209450
H          -0.63493060408187    1.31152233500361   -1.42169765507160
H          -1.67688590793159    0.23620792399214   -0.62345442867291
H          -0.59512528256570    1.17090732756373    0.17674928320195
