    19
        -40.91793144
S           0.49920040140140    1.49115374969881    0.78441824531233
O          -0.56269490819821    2.46648637293074    0.87621414282538
O           0.20404944575703    0.24276688402819    1.45683705345901
O           0.91109587701574    1.25804811721253   -0.60936921725495
O           1.76703258868824    2.09971810137591    1.50750028268684
H           1.84066106077991    2.98308693246440    1.15664626760489
O           1.41863984263996   -1.91395036042753    0.62280453123225
H           1.05230165340842   -1.05629305204900    0.94549816886940
H           1.37645442813755   -2.51316654473563    1.37046359631832
O          -0.06792092735381   -2.30952504742784   -1.49111870047042
H           0.52800351709535   -2.52989045775071   -2.20988004550277
H           0.50029439771474   -2.22684568605336   -0.67674500945143
O          -2.31154210916857    0.58418144399485    0.36170635520014
H          -1.94128220836268   -0.00234936459905    1.03203390630512
H          -1.89229108476568    1.45204501379975    0.55965482248928
O          -0.93765232195291    0.06527673332796   -1.70964513659133
H          -0.64779411223864   -0.92777944364496   -1.66776818889327
H          -1.63940507521259    0.21938838492405   -0.97024943535881
H          -0.09715045541160    0.61764824288374   -1.33900164878688
