    19
        -40.90976875
S          -0.44271775134434   -0.51479890222365    1.83615936627314
O          -0.57221197930983   -1.72836221070944    1.05032199389105
O           0.92079580565625   -0.01871798810008    1.87041696663681
O          -1.39121678009949    0.51774146912837    1.41492672305030
O          -0.84858662756327   -0.87459683279337    3.31710315571046
H          -0.23925033277581   -1.56963663419788    3.54702762121416
O          -0.84375357268099   -1.27089575903651   -1.47000677009296
H          -0.70376084629302   -1.54065902477761   -0.52050326632100
H          -1.62812360746979   -1.73384454627729   -1.77003267747217
O           1.28585146059051    0.21013231424905   -2.70433825133206
H           0.83380025949209   -0.60312124952543   -2.45993597774409
H           1.78068838022737    0.49653771895029   -1.93070949533703
O           1.52545527773310    1.47717118084187   -0.13678936316799
H           1.85509089674011    2.30979658028745    0.20613391828046
H           1.39263063316686    0.88121283043949    0.65154218286428
O          -0.89849615207230    1.21624815675792   -0.89332525387927
H          -1.21165867660178    1.00012819741091    0.10650406112923
H           0.09077381086571    1.45043574922815   -0.77645285067669
H          -0.90531017897206    0.29522894076365   -1.33804207245518
