    19
        -40.91966060
S           1.02267714972798    0.31481558273216    1.33664441599955
O           1.94374811827074    0.55628362899721    0.23684913717343
O          -0.22695578834202    1.02084033588042    1.19827969641617
O           0.81402276100353   -1.12779236652654    1.53430511775981
O           1.72113636981798    0.83553165633937    2.64788390929998
H           2.53876591024206    0.34741298275843    2.66281201138512
O          -2.46041164996356   -0.11630307132326    0.14071450633846
H          -2.03137287711061    0.28717026981739    0.91328491773096
H          -2.26833118789797    0.53445667310471   -0.57778495371426
O          -1.12036429106023    1.60804835433794   -1.34395789665673
H          -0.48105708505543    1.12657817267327   -1.88148995997531
H          -0.69173818752650    1.74143029896504   -0.48263205300406
O           0.83441891319678   -0.39802994236220   -1.86521402092630
H           1.32725895488226    0.01992199023574   -1.10037892089269
H           1.50120846004946   -0.78280110416592   -2.43722041697880
O          -0.67660080299467   -1.80001246518022   -0.31369948692873
H          -0.05754587385390   -1.63192455395586    0.53441917156307
H          -1.53275349361604   -1.17262844317835   -0.14140863115570
H          -0.15610541971403   -1.36299800912806   -1.06140652345720
