    19
        -40.92343495
S          -0.42296732385103    1.63152664502362    0.06808593154971
O          -1.52486107501845    1.22464902055409   -0.80554776868840
O          -0.66910616126785    1.27447412631181    1.44878544688654
O           0.85762457373068    1.13926298525334   -0.41480836203903
O          -0.35250295752723    3.20296774277279   -0.01754630897604
H          -1.22746542207419    3.46624946602859    0.25007433361424
O           0.95927431241317   -1.10263983211252   -1.85773024476868
H           1.56235720854162   -1.58214787821649   -1.27921206073915
H           1.02160912684397   -0.16746000383445   -1.57172254888040
O          -1.42058432111926   -1.25199344624900   -0.96771552576509
H          -1.60164192130458   -0.22248403541587   -0.98502364045571
H          -0.51498549453038   -1.33900812769433   -1.44571915329367
O           1.86804747451106   -0.91891764748556    0.92432552270881
H           1.59087299483713   -0.07433425119913    0.50546833173168
H           2.43982818346114   -0.68063111880683    1.65533588732264
O          -0.73703118730512   -1.33996342340007    1.42668615343538
H          -0.84924544587146   -0.37927736151508    1.62341339574506
H          -1.21428570516773   -1.42597971650640    0.06726171458726
H           0.23506314070098   -1.45429315350508    1.37558890601808
