    19
        -40.92136331
S           0.57076356717731   -1.02376960581194   -0.74254287046533
O           1.40057773591819   -0.02999099809338   -0.03844685290641
O           0.73129770214619   -2.35076468916466   -0.20203228002003
O          -0.80158008456196   -0.57836732904331   -0.83042251829453
O           1.13437936969713   -1.05198360447405   -2.22657517691917
H           1.81537224137647   -1.71843628706195   -2.20605113291891
O          -0.90492426415475   -1.75191421076322    1.77410590778966
H          -1.74599502915820   -1.74669736477073    1.30856642087465
H          -0.25952930181234   -2.13466086775495    1.13715631575313
O          -1.46508271263218    1.70195894521418    0.27774519369503
H          -1.50151249477246    0.86100580754872   -0.23279206080747
H          -0.82549018953204    2.23816468253371   -0.24093018276473
O           0.62403844278578    2.21059843172021   -1.29644988404561
H           0.50597168456786    1.98078002674908   -2.21964440064388
H           1.06944364439617    1.44711305917940   -0.88292556866253
O           0.01341690035413    0.62221988437605    1.94760062607122
H          -0.41005944789896   -0.30177665782537    2.07343464739156
H           0.74435829805402    0.42608237925432    1.25321439208840
H          -0.69544605184453    1.20043841807742    1.34698943481429
