    19
        -40.91317658
S          -1.09876483377988   -0.31495492365976   -1.67031490868277
O          -0.74537210166210   -1.69092403981390   -1.88701479878595
O          -2.17261369381193   -0.16523343295421   -0.66916680816433
O           0.03704200421054    0.53041551262007   -1.32529147100467
O          -1.68602454676130    0.25974331530737   -3.01993132800439
H          -2.26803017410440   -0.42306050129543   -3.34263879443081
O           0.26214796618696    1.96645996275343    0.92924067427920
H           1.16232335313328    1.71469363733959    1.21658190439808
H           0.22197107973950    1.74701549152101   -0.02345226042203
O           0.91673386100684   -1.34816999258613    0.27785190601075
H           0.79172545067132   -0.64933553011138   -0.40542709311677
H           0.65319896400700   -2.15107052421388   -0.18553268077328
O           2.46607560546656    0.55864870349819    1.65259216061807
H           2.20602862614842   -0.24806727378433    1.18641359168245
H           2.79561194776753    0.29598626434224    2.51314978823679
O          -1.02916313812849   -0.09136301282796    1.49416202468828
H          -1.65906580544419   -0.12354665178175    0.60089146628782
H          -0.29662217893194   -0.73263116571723    1.25997681847626
H          -0.55720238560352    0.86539416128421    1.39790980863576
