    19
        -40.91885165
S          -0.23063983209049    0.68761392511781   -0.99173079816320
O           1.21494305557829    0.71351862840127   -0.91739358919458
O          -0.72650662082327   -0.62910063798052   -0.48356009489860
O          -0.87526936953344    1.77006804219643   -0.29040556551883
O          -0.66652617727518    0.75646164059733   -2.48273500903203
H          -0.33957272890722   -0.08691436950222   -2.85596003201453
O          -1.11262349387839    1.56792533856466    2.28117447934260
H          -2.04893820833705    1.65791976980529    2.47086943184069
H          -1.00326242511193    1.79820860919547    1.32070930930355
O           2.24826484604612   -0.10374685740896    1.29495118183751
H           2.87526628096840   -0.78925050369771    1.05502199798889
H           1.95465277431203    0.31291427865398    0.43729680633547
O          -0.06428761107475   -1.80509250726050   -2.75414185366824
H          -0.27348455458969   -1.64229576159529   -1.81454920095341
H          -0.77312938971008   -2.34885821283073   -3.10546633547390
O          -0.11439143461585   -0.72091890165467    1.90870482036245
H           0.90195236514845   -0.53053015851207    1.80610903910733
H          -0.52981459587228    0.17227395331913    2.22583371982015
H          -0.43663290023533   -0.78019629540752    0.89527169295563
