    19
        -40.92136286
S          -0.72491471877723    0.34704299241685    1.12977184957402
O          -1.90939147800832    1.16482168862294    1.04611842663272
O          -0.90292833718316   -0.96168054368223    0.47552003974221
O           0.48045230522423    0.99515717755728    0.66493251468071
O          -0.49543607687385    0.01083253286041    2.66439328294954
H          -1.37323048886622   -0.00043747434989    3.03550155895312
O           1.56609963589321   -1.96946338021879    0.78494240477343
H           1.86940046034626   -1.68341573646610    1.64835650554776
H           0.61479621572129   -1.75513909905608    0.74850361035222
O           1.92983577086839   -0.19242102350901   -1.16753981186758
H           2.07982904913293   -1.00742272603930   -0.63930500513253
H           1.61776307201804    0.44721176575772   -0.48743837227517
O          -1.28469713693283    1.83144402257025   -1.42518469448643
H          -1.68420488323407    1.66836864780273   -0.54058927785576
H          -0.55414847762852    2.43530954695004   -1.26533809397289
O          -0.40360363227387   -0.50743000253817   -1.94013067952796
H           0.67193792358796   -0.40557344808651   -1.76827597017755
H          -0.71524526559564   -0.86109408148115   -1.02724749882926
H          -0.78231392708397    0.44388914017477   -1.93699077945805
