    19
        -40.91907667
S           0.40283605423587    0.59117278649315    1.50647763794150
O          -0.03196549604896   -0.30172138506565    2.55504801149084
O           1.45160848617897    0.05900737097607    0.66701797530638
O          -0.73303332548092    1.06574521089107    0.68814126342103
O           0.98068442779908    1.88756590120654    2.20773312141752
H           0.46064146596099    1.99492163943873    2.99987814658298
O           0.04596907208735   -2.30196936729999    0.86061245612144
H           0.90863366274921   -2.03007712782470    0.52115975975313
H          -0.05133890053703   -1.77743163902616    1.68662646720651
O          -0.33359304873909   -0.42759088916141   -2.69024364810745
H           0.23378337502616    0.31672973084785   -2.33399943023657
H          -0.83310183406972   -0.06821000212079   -3.42565193934325
O           0.89869872210930    1.51439593413174   -1.46356667865985
H           1.39977589528688    1.00308973695962   -0.79784389032843
H           0.17752174461394    1.89239315636218   -0.94364653231499
O          -1.55228070164698   -0.93161304419464   -0.53479165295426
H          -1.11188285615619   -0.80484919223371   -1.46842655883436
H          -0.98399953135554   -1.63798543749356   -0.02451222003921
H          -1.32895721194299   -0.04357340287683   -0.01001229854252
