    19
        -40.92267724
S          -0.52778388748341   -0.09008691179371   -0.91999944884329
O           0.64412657598559    0.41301634103684   -1.62097404780102
O          -0.13525288188680   -1.20711630730786   -0.02482510072172
O          -1.22487789675078    0.93508426145452   -0.17709457431283
O          -1.51627444722736   -0.69332298582067   -1.95643527871539
H          -0.96143351330682   -1.34867413253921   -2.43485226792564
O           1.59785569301028    1.72464120042242    0.43832947697321
H           1.38326862989901    1.29741504679346   -0.42505665071739
H           0.98103795900966    2.45735860829819    0.51934660510283
O          -1.42464036976544    0.91813537537224    2.42433969538384
H          -2.17003562771683    0.37148934728023    2.68032535696264
H          -1.49152987140322    1.03971112141054    1.44507371959065
O           0.60279553960238   -2.09234402254228   -2.61481471276527
H           0.99961476888384   -1.21148483516349   -2.52322783108172
H           0.68903940046503   -2.50442875256363   -1.74883359585987
O           0.83357923452713   -0.15296405751392    1.96917422330788
H          -0.02297613786419    0.25324363556968    2.35890374453859
H           0.45214227102022   -0.73713285528257    1.13574101383780
H           1.29134455093755    0.62745994287295    1.47487967301848
