    19
        -40.92267750
S          -0.86432787373653    0.42985364155328   -0.44990541493703
O          -0.68950524090956   -0.99752859037394   -0.08307450844333
O          -1.06864847695835    1.22486317652377    0.75192923866949
O           0.24966766795886    0.88920937822335   -1.24786677695542
O          -2.14712436988500    0.49802255082643   -1.32457979735666
H          -2.85218130852822    0.20601015386687   -0.70496117075382
O          -3.26575280330509   -0.32789770678838    0.89985117012234
H          -2.76554283030194   -1.14961145347824    0.93817353462308
H          -2.66979320700031    0.35509751421350    1.24675680597486
O           2.39449794312005   -0.54006429144339   -1.65086069695648
H           1.63661281206106    0.09554976842848   -1.64491541022152
H           2.24570826855511   -1.13074599274776   -2.39175601208419
O           1.44736603005296    1.19119103741680    1.48408420113669
H           0.47550210914633    1.30633868936656    1.35567458012399
H           1.85946912516516    1.76728462634877    0.83429777743968
O           1.63468973994867   -1.21029833839067    0.67851723962076
H           1.68774162403781   -0.29049890995851    1.14158590124316
H           0.58782892603159   -1.24212371811130    0.38986775170610
H           2.10379184450854   -1.07465151550000   -0.22281843298459
