    19
        -40.92025485
S          -0.86860044555488    0.27309901339577   -0.02701993357951
O           0.36492981801012    1.04351024811831   -0.06215736754984
O          -0.99477741142636   -0.54703838894481   -1.23572412049943
O          -0.94936283141827   -0.53131779579114    1.19075936739687
O          -2.07998820951800    1.24771835387959   -0.04596264888613
H          -2.23916783503119    1.49335731641752    0.89374979163841
O           2.05773465859296    0.72828105158907   -1.99999644246014
H           1.47508568965684    1.00022285320820   -1.24242200592300
H           1.73529164570231    1.20164246979712   -2.76934532287246
O           1.49786297208740   -1.43417542612375    0.90356006797739
H           1.98363032622603   -0.61571636818799    1.04560950096420
H           0.56584685160342   -1.22150029031922    1.14418823290575
O          -2.25361554195794    1.27730609430027    2.57451753493324
H          -3.07135322595776    0.93196163515501    2.94041248032392
H          -1.69592159443713    0.50361487670320    2.35621196771705
O           1.18801779486141   -1.61515386635688   -1.60768966105052
H           0.17530556385756   -1.26031631115010   -1.54206652349501
H           1.68181602600112   -0.76258379226767   -1.90846143900121
H           1.42726574865945   -1.71291166343704   -0.60816347853727
