    19
        -40.92343591
S          -1.21338559809073    1.15783589082766   -0.17979107834538
O          -2.01639182230284    0.06105528119280    0.31710547198274
O          -0.50359537671031    1.84730054377921    0.89875019976195
O          -0.30999968886253    0.74964551592689   -1.24403228447804
O          -2.18994682536306    2.21977063851313   -0.81279234719276
H          -2.72225848037997    2.48410081643152   -0.06897015935908
O           2.24910957107554    0.23709048461577   -0.68998651659411
H           2.25652017815836   -0.66809755987509   -1.02019244294161
H           1.42879998069089    0.63320035621185   -1.05109993641580
O           1.28727181389084    0.30572510306439    1.66531604319442
H           0.58019111920337    1.04935745120969    1.46599237974280
H           1.84992152700931    0.28046816750979    0.80546985831512
O           0.27497448309886   -1.83920418793084   -1.31337008590111
H          -0.03516610716692   -0.91066783913230   -1.39920350572552
H          -0.31225639663912   -2.36892419339810   -1.85429842002032
O          -0.26526981564605   -1.61009515178392    1.30793498493240
H          -1.06907633787052   -1.08014212751641    1.09062631401557
H           0.01907012129313   -1.96634601641817    0.44024139723895
H           0.69148765462025   -0.58207316323038    1.64230011778026
