    19
        -40.92343668
S           0.96284580026302    1.13810103458547    0.78957396477587
O           1.74242311035221    0.98011995431411   -0.41961802559219
O          -0.18438705065238    2.02431525549287    0.58750574737799
O           0.56341425990305   -0.13577066101462    1.36644272488267
O           1.87970288835303    1.84002916401021    1.86125396687479
H           2.09353162926033    2.66842176640169    1.44347774831190
O          -1.88965024692840   -1.08719425287878    0.91916597355408
H          -1.61496119346904   -1.92224077587386    0.52448313196338
H          -1.08565769612812   -0.73494655791945    1.35456325736819
O          -1.80699070124467    0.77301217977618   -0.81624944202899
H          -2.03262761362513    0.01670092438069   -0.15799422922067
H          -1.22591527945937    1.42489269169294   -0.24107803438767
O           0.53018361069986   -2.19117690790588   -0.31341246656703
H           1.35278627558693   -2.67959262420273   -0.36647501372887
H           0.67191968571776   -1.48576014416592    0.35597443373698
O           0.10489247998750   -0.20952354483499   -2.07651435417089
H           0.82070794842159    0.31862083380105   -1.64892679182565
H           0.20101395902673   -1.09856539221885   -1.67528192424498
H          -1.08323185601754    0.36055705668128   -1.48689066700574
