    19
        -40.91990218
S           0.75998072772778   -0.77227501257119   -1.05278312456345
O           1.31268324311523   -0.33496845889133    0.21952453603495
O          -0.71523088659212   -0.64398359354068   -1.02436519791123
O           1.34126311388765   -0.12368034721133   -2.19108406842966
O           1.04403426684008   -2.32035126076391   -1.15806319912593
H           0.89895704538218   -2.66470258387567   -0.27928059061609
O          -0.32102132955745    0.54902956381414    2.05605461863760
H           0.47797979425761    0.22015077310214    1.58171939403564
H          -0.88881239390639   -0.24460837909514    2.10679561660990
O          -1.52829940861236   -1.72878902289991    1.24289939766076
H          -1.28900889457976   -1.41719113836086    0.34387359651146
H          -2.43938368450240   -2.02295128249101    1.19553371227365
O           1.23555520532921    2.22567700417644   -1.00566218092862
H           1.89086622113461    2.08287821377836   -0.31612779979809
H           1.34042402294011    1.46120104802365   -1.61754198910277
O          -1.04736605612212    1.63677119623519   -0.05929281261495
H          -0.81921654611007    1.30755506902785    0.94327603185362
H          -0.18016531122677    2.05800679777187   -0.42538193914446
H          -1.07323911939108    0.73223141376050   -0.56009401138468
