    19
        -40.92136403
S           0.59842372409709   -0.32121438225193    1.20899804133975
O          -0.14038608628976   -0.30494267828661    2.44705392975670
O           0.12034198378085   -1.36628001916896    0.28645093055007
O           0.67088900292782    0.95936058637158    0.54220284703960
O           2.09035613974661   -0.73470271375712    1.56139598352052
H           2.00433869766518   -1.27867582110862    2.33922014168270
O          -0.08637073174555    1.12507825372289   -1.96085499397544
H           0.55348714443488    0.45499315467640   -2.28822860736600
H           0.27502006151912    1.34838533410386   -1.07265637203536
O          -2.09161902408237    1.01972486373758    1.27103959440491
H          -1.48678248073097    0.50880383426806    1.85550708862176
H          -1.68584006184022    1.88688611081308    1.18440123121592
O           1.68175259247052   -0.86531738947767   -1.83900189424525
H           1.17616689092013   -1.21300449851595   -1.08026835558146
H           2.54377879555191   -0.62491771109865   -1.49527915751960
O          -1.81515308864353   -0.29643637163406   -0.89772441600069
H          -1.17305758873554    0.35676507940296   -1.49675713575900
H          -1.11763301975210   -0.91758611829686   -0.47023420129707
H          -2.11771297128546    0.26308046649906   -0.09526466435621
