    19
        -40.91898889
S           1.01472184389443    0.35033869899100    0.23145035877124
O          -0.09450275062031    0.86740910282309    1.04549365743160
O           0.97195703564936   -1.09513449913648    0.15527590198011
O           1.00979043596919    0.96301878376849   -1.09907223127212
O           2.34058540831153    0.79752480071461    0.90818311737595
H           2.20531339744654    0.59077850287124    1.85711238412892
O          -0.22493940362096   -2.30106980222154   -1.78682517829954
H           0.34884463672307   -1.95446288238631   -1.05102620469740
H          -0.89860212114620   -2.83869057753657   -1.36429336909093
O           1.24190496616847    0.44019359668991    3.27594531072284
H           1.21357732511611    1.20995650128615    3.84909652033018
H           0.50849837892160    0.53775846026094    2.63750733144570
O          -2.27129511690293    0.55009143945532   -0.32908609439604
H          -2.74909151922604    1.38027159334627   -0.27125949818787
H          -1.48728984393234    0.64260075198821    0.27668592327344
O          -0.87616141936298    0.05598298429978   -2.39421856652974
H          -1.58047852861365    0.25475742265814   -1.67629572398738
H          -0.00513655133493    0.50695072366604   -1.96000597478195
H          -0.66769616341535   -0.95827558140560   -2.30466765417460
