    19
        -40.91898900
S          -0.53101494475896   -0.42784675524008   -0.86449908103590
O          -0.30235272946504    0.98865867095598   -1.05939536215632
O           0.68973637030392   -1.09835425427242   -0.39482433350302
O          -1.64358725700472   -0.67569753986010    0.05569376386364
O          -0.93367376874210   -1.08158415715182   -2.21588358362023
H          -0.09408908688719   -1.11840855617200   -2.72106595962180
O           1.07745100169546   -0.38347870172945    2.06817486266419
H           1.26607863413707   -1.18849134364157    2.55511984411557
H           1.02558849494084   -0.64877341749127    1.11051850895528
O           1.61322457538235   -1.29992549389041   -2.85424950933799
H           1.57360410900486   -1.20604870438439   -1.88236519014239
H           1.93014439516571   -2.18841208529913   -3.03323953814169
O          -0.77974413866369    2.68800465703495    0.82363241666669
H           0.06434014742586    3.11362458599453    0.99043505832637
H          -0.65433421833501    2.14748261486615   -0.00269308029311
O          -1.26798187476086    0.59059821235658    2.13230298463889
H          -1.14236538663900    1.53978120495755    1.72872865325095
H          -1.57096190833530    0.01743457733922    1.27771891802131
H          -0.32006240447654    0.23143645565417    2.28589064724287
