    19
        -40.91346200
S          -0.07567815139997   -1.88238663268623    0.80261870269746
O           0.88045168935459   -1.22385499116440   -0.04403114463843
O          -0.06485519331433   -1.48000140977899    2.17449888610238
O          -1.47318594488679   -1.78375890034584    0.21375424260248
O           0.20822436914783   -3.42477147682336    0.73096524179443
H          -0.28600041840337   -3.83504697236124    1.43791454618720
O           0.25151580930811    0.46612779817123   -2.19366892788593
H           0.68851368377034   -0.25754448485447   -1.72388107702757
H           0.74654136944913    1.27268759642895   -1.95458929100114
O           1.28258131538258    2.67608433421969   -0.93250971277874
H           0.80102809253750    3.50249565856868   -0.99716710532775
H           1.11495105764963    2.31992087639473   -0.04843592678590
O           0.40824955301306    1.10544634630197    1.22804160231320
H           0.27310748849793    0.80636878639950    2.13232180288254
H           0.81009954014106    0.34036138427613    0.77847642313797
O          -1.67809891924821    0.58205840436932   -0.46034678529840
H          -1.13494096784307    1.00254600507350    0.23369458200843
H          -1.08763804513353    0.58024016700975   -1.27324031029491
H          -1.66486633803421   -0.76697249920487   -0.10441575868002
