    19
        -40.92217271
S          -1.18821090543922    0.68332001301811    0.16953426167644
O          -0.87103741034237   -0.64741991109779    0.65723799736967
O          -1.51173643833900    1.65532606219483    1.17410025909341
O          -0.16888884738282    1.15005248480357   -0.77887837133165
O          -2.50543588098416    0.47864194059996   -0.71460109460111
H          -3.01107008184071    1.27489171110920   -0.58055930931436
O          -0.58962743830138   -2.07121556542717   -1.51705048979552
H          -0.85195131110977   -1.68826410012311   -0.64842059280645
H          -1.25730962558068   -1.78784025227340   -2.14470912233797
O           1.73594834537873   -0.92373838274571    1.22111861038771
H           1.76242316980179    0.00446644493292    1.54294532286691
H           0.79762888183555   -1.16341449677440    1.32153741202776
O           1.12845392183103    1.63494016599108    1.69214304620371
H           1.41966384654324    2.25288928355969    1.01744095518556
H           0.15668161702638    1.69449336786947    1.69629865352552
O           1.49960990143669   -0.61526978548036   -1.24569196692981
H           0.83443889549516   -1.33763654425874   -1.50175713348340
H           0.86223387503866    0.21940318167650   -1.13374339769441
H           1.75818545492439   -0.81362559760841   -0.22694502003816
