    19
        -40.92174072
S          -0.16367774229414    0.82655633297511    0.30284108063956
O          -1.05167833945404    0.17564512946519    1.24287727529209
O           1.23988142880827    0.26460694956163    0.43454896331608
O          -0.60053631186789    0.77793872324321   -1.06164711195186
O           0.00036578944092    2.30368982513872    0.72160676540553
H           0.03117675809616    2.30140958839494    1.71329154638307
O          -1.28296656049463   -2.00409502183606   -0.34535922223306
H          -1.35295415946083   -1.33815475038489    0.35840082950280
H          -1.67949604388336   -1.60473401822259   -1.12411436402518
O          -0.29927783448414    1.74383336537284    3.23867879698837
H          -0.64706925074272    0.94179097775167    2.80662937138233
H          -1.03612797957503    2.15677165168505    3.69611186022696
O           0.80972211191633   -0.46390628514658   -2.98851755175589
H           1.41916859192594    0.16048015860985   -3.38547068788926
H           0.20931453860836    0.05691366821142   -2.42212801547864
O           1.33129496532492   -1.87561713888495   -0.79628409801863
H           1.35873071083436   -0.69570092927413   -0.06225145616767
H           0.41589400464428   -2.19116761988103   -0.60865995652535
H           1.29823532265260   -1.53626063678326   -1.72055401509383
