    19
        -40.91965951
S          -1.05807488978520    1.34345000480856    0.09002481899558
O          -2.01894105172670    0.25312331169727    0.02882495487300
O          -0.45307316269755    1.42996913590503    1.42826764176078
O          -0.05724174769030    1.27817702745685   -0.94590920327009
O          -1.86090607708575    2.68307906981629   -0.10712871332098
H          -2.48512923520659    2.66600179730890    0.61184506593220
O          -0.70824310508395   -1.90374086725799    0.46193326579116
H          -1.24712407357968   -2.51511047231351    0.96755925045195
H          -1.29082715812250   -1.11442007332767    0.26151192952995
O           2.39403920545627    0.16269788606146   -0.56453293828765
H           2.02141506713725   -0.50461357664910   -1.19108537991421
H           1.87649990644068    0.95887305684668   -0.76950345978860
O           0.61332915545916   -1.19856229704619   -1.96028075837940
H           0.12880602747982   -1.78035292550377   -1.36328379157315
H           0.17196162993801   -0.33542739678830   -1.90131203407877
O           1.14658178460808   -0.44720947592193    1.50793564932340
H           1.79534017993631   -0.21458454932257    0.68264204376455
H           0.51341775131162    0.40364124243342    1.58735320495801
H           0.51816980321707   -1.16499091820433    1.17513844322898
