    19
        -40.92079119
S          -0.05714525372347    0.73699074877122    1.28883277545911
O           1.20991186706836    0.04290329592809    1.05053212338472
O           0.02895891817034    2.15026308445225    1.02538154130698
O          -1.15719392118729    0.06751707493247    0.60869735512555
O          -0.36275670789274    0.56546501307393    2.83224997174701
H           0.29221163991936    1.11683432013056    3.24875452743714
O           0.84924597074889    2.20443496192609   -1.48627796296376
H           0.62661639147968    2.24525401333122   -0.53091644477800
H           0.63853951293139    3.06791052609786   -1.84655973110128
O          -1.00246563344604   -2.54965902234415    0.51950426539482
H          -1.78173647629271   -2.88071302892909    0.06848492342163
H          -1.17698044877370   -1.60021504651737    0.72193968366315
O          -0.41569267286548   -0.06139093407342   -1.94871907233329
H           0.10016948798025    0.77662539663071   -2.01111133868280
H          -0.95263284755250    0.05455404619563   -1.13873713593007
O           1.04975117710574   -1.66813154590612   -0.73068919870888
H           0.33525360852550   -2.24166153216081   -0.29398012390039
H           0.50681573258826   -1.05149240314028   -1.41060150978432
H           1.26912964522175   -0.97548896838672    0.03321533123816
