    19
        -40.91376532
S          -0.48847957061444   -1.14916573377690   -0.04387426982469
O          -0.89104094241824   -0.52801668970703    1.21053537450503
O          -1.30954901849002   -0.62956639723897   -1.14668044471334
O           0.92078970948001   -1.02910058246575   -0.32969261534856
O          -0.81289579742706   -2.68035852345569    0.06764555507194
H          -1.66386818440065   -2.74532490837182    0.49258558426613
O           1.79666343010956    0.99263610236023   -1.73041048466882
H           2.42330222290159    1.44368859253170   -1.15964996041689
H           1.59112891581225    0.13249145782084   -1.28919486157246
O          -0.67216745098736    2.04484459459282    0.92073626004436
H          -0.71960500222917    1.07859771065678    1.14261611654996
H          -1.40534121919537    2.46139754265820    1.37868688336500
O           1.20389471445520   -1.97981886908394    2.29638744033849
H           0.41589378777534   -1.42643630304448    2.29110408830410
H           1.54554705896923   -1.92328101853160    1.39914422713353
O          -0.62731186902145    1.69401083732064   -1.59043907085833
H          -1.00668641569555    0.69475674019324   -1.51810300089914
H          -0.67858749661404    2.00977164087451   -0.61536447253628
H           0.37831310756274    1.53887379667867   -1.77603232873091
