    19
        -40.91899936
S          -0.54874345017749   -0.88714936576623    0.62854548312618
O          -1.62083425399177    0.02730295507722    0.29581464427452
O           0.42834551737182   -0.94411776930305   -0.49968776839445
O           0.12700294962694   -0.55175791226468    1.86098158625031
O          -1.11893319218974   -2.32367566391180    0.77592334440672
H          -1.38530518283504   -2.56000840825144   -0.13730943532301
O          -0.94266031284034    2.28846785638722   -0.73594587567079
H          -1.13321197134907    2.94045326085482   -0.05762630538415
H          -1.33715341338443    1.43228425433776   -0.41022429108103
O           1.71641257599127    1.47625597355167    1.79426189960887
H           2.53794353126479    1.20129159252214    2.20644442463884
H           1.07059944366539    0.73309785281706    1.94990609757243
O          -1.16753155232382   -2.57294841944164   -1.84556745969434
H          -0.69961726339949   -3.32800262989646   -2.20995054916024
H          -0.49593850933371   -1.89408642252649   -1.64678536580768
O           1.38161243559211    1.32436098567713   -0.70833249374409
H           0.48748265377008    1.84453986180797   -0.82902521714956
H           1.65153457735410    1.48377096692838    0.27404682615557
H           1.04899542717511    0.30992103140289   -0.70546954463561
