    19
        -40.92136395
S          -0.89893622772748    0.50934950181263   -0.92362648112948
O          -1.32738118255663    0.12613397089016    0.43312835857379
O          -1.02239649165514    1.92692407079357   -1.15649625251563
O           0.40836633674880   -0.03082805575099   -1.22195075876283
O          -1.92221251864989   -0.21477421383772   -1.89817612373794
H          -2.62055299621976    0.42226252493482   -2.01947663697198
O          -0.76191705294036   -2.49712385280365    0.37262875072586
H          -0.97441480813674   -2.80035068871353   -0.51181057593980
H          -1.13071040386733   -1.59658837046382    0.44497271959826
O           1.23370597241864    2.34236416273814    0.14018384614568
H           1.86804453938066    2.01601525005424   -0.50415357464312
H           0.37439820210602    2.37766688405829   -0.33830364843772
O           1.65684497532829   -1.40771650414150    0.62403947159023
H           1.42532270026689   -0.97767818464916   -0.23096077060465
H           0.94705574557245   -2.08032602873686    0.72227578545350
O           0.70493695829289    0.52327288116544    1.84996228473611
H           1.03714563383968    1.32905379349254    1.31243220254645
H          -0.23234812437344    0.37946900684672    1.45622558903603
H           1.23504871217168   -0.34712616768881    1.44910583433978
