    19
        -40.91940427
S          -0.98295098719119    0.01136177864648    0.41632325527091
O          -0.38188061037052    0.98021757792875    1.33879695758454
O          -1.13738884821272    0.56929025926259   -0.91091393774429
O          -0.20490707178083   -1.23251920999886    0.39349030071036
O          -2.38511384170941   -0.32172648928545    1.00115897167592
H          -2.65708863403668   -1.12320731372276    0.50643535292290
O          -2.34313890038677   -2.60326844615876   -0.31240536379630
H          -1.41377568839285   -2.31095067918686   -0.24012417071733
H          -2.41824923025634   -3.41414454591866    0.19623301720918
O           2.35521901213454   -0.76031685586293    0.32825186726228
H           1.40056014326654   -1.02990013226353    0.28788344890837
H           2.71695967881903   -1.17691131049350    1.11328741109522
O           0.74696492948718    2.08594171557685   -1.80313643307200
H          -0.00100123594708    1.46098440594617   -1.59271573813639
H           0.33795938978432    2.93531746291643   -1.98219751803805
O           1.79832408955305    1.70883067455491    0.45428092822200
H           1.49917549505988    1.96034086797656   -0.50831286737657
H           0.86514784124258    1.49343514968258    0.93275207866983
H           2.20518446894477    0.76722511039614    0.38091243935260
