    19
        -40.92343663
S           0.43759991077241    0.55910819534173   -1.52989886922252
O           1.69233442394528    0.77329733453695   -0.84091931859504
O          -0.12305882826711   -0.75773889899000   -1.27186180461590
O          -0.52771316363951    1.62293881166906   -1.24940174411855
O           0.72568505738174    0.62056342861839   -3.07752449031860
H           1.07292988370498    1.49983227404878   -3.19144672373022
O           0.71633288650244   -1.93777530413379    0.95305778381009
H           0.50099517959532   -1.59025756946559    0.05940010218066
H           1.49333775066092   -2.48822808449766    0.84679416272574
O          -2.04810968928835   -1.04684351266420    0.55358316465691
H          -1.58499707143084   -1.68807281558010    1.10387920773027
H          -1.55143185482345   -1.03031650278536   -0.29089239199912
O           1.05727965306240    0.62208877442146    1.69226306586327
H           1.47098336901911    0.81444687383979    0.81711342088934
H           0.99932384513318   -0.35613241565894    1.71133653141723
O          -1.26346695217045    1.31153730236853    1.10226397695676
H          -1.04273642304069    1.57830243648838    0.11550515479300
H          -1.73100234543360    0.40203566239580    1.00021330359189
H          -0.29428565169415    1.09121401004518    1.49653546798680
