    19
        -40.92079094
S          -0.47175761862480   -0.94912695047048    1.04194228930239
O          -0.74310295697104   -0.21925500843672    2.25338264273192
O          -1.45332272503308   -0.67660272546705   -0.00994642767908
O           0.88758461911009   -0.79491006029353    0.54263960086610
O          -0.61356547682256   -2.48893870581240    1.37899247847962
H          -1.46197862433651   -2.54265144495399    1.80778439334238
O           1.26946653124030   -1.54699137106819   -1.94100785030402
H           2.19580967895497   -1.41725211979228   -2.15408381812203
H           1.19101518677302   -1.45647619863875   -0.96193872276406
O          -0.76982816925731    2.28459799509408    1.40825110777712
H          -0.62652801104643    2.85302405554785    2.16733942078459
H          -0.85527994298169    1.37279256233201    1.76210404197955
O          -0.44561484130716    0.35112827863104   -2.02360106179079
H          -1.01084542261945   -0.06943448247400   -1.23951203218672
H           0.20208345318414   -0.39967127599793   -2.24054983951826
O           0.98112406369271    1.67186633090240   -0.46408384633576
H           0.35768681764642    2.12290436959369    0.15257695703765
H           1.22003052959606    0.84786359324381    0.00677845837673
H           0.14702290878000    1.05713314807678   -1.48706779188242
