    19
        -40.92079109
S           0.80868975457486    1.16520253462694    0.44442842662935
O           0.25680983433092    1.29887589381156   -0.90528711466733
O           0.05817651761220    1.90754557852528    1.42413581576835
O           1.01982109237825   -0.23434551127490    0.78749190894269
O           2.25817226464456    1.79771948763019    0.38596633362944
H           2.08729319012501    2.72908819415982    0.28676977512174
O          -2.37712809253284    0.92168804667064    1.13937940395913
H          -2.86821185244434    1.11400775678797    1.94044177438811
H          -1.51512860608616    1.38292565111010    1.23001870295121
O          -1.35108761539326   -1.39979530616298    0.42904442019414
H          -1.94104562565769   -0.65078419260025    0.68075702775021
H          -0.48286396901291   -1.14980273532848    0.80521383857580
O           1.78993783840785   -1.77934162849735   -1.18745307652786
H           1.91174013953031   -2.66662732224512   -0.84366640946937
H           1.70401684571597   -1.18424776072593   -0.40554971211692
O          -0.50390266056548   -0.85825841619167   -1.85151011766801
H           0.38948214754966   -1.33846516237456   -1.81164459900819
H          -1.00977571655504   -1.17928327818900   -0.96908420116681
H          -0.23499547662591    0.12389818027286   -1.57945217728325
