    19
        -40.90958739
S           0.52632099882168   -0.79358680454823    1.64618708624915
O           1.74879647637186   -0.75671853575689    0.89656754545153
O          -0.19937848498561    0.54449570284102    1.53615207875164
O          -0.35721171138667   -1.88084311348411    1.37366330456875
O           0.89694188645965   -0.82708472883322    3.17038200902591
H           1.61973665693524   -0.21213696291615    3.27208179237445
O           0.93519056404200    2.68180307510956   -1.35944057090561
H           0.69013268404010    3.22228531627156   -2.11287829638493
H           0.12160407659968    2.47825529105621   -0.88634794570005
O          -2.33627313712268   -1.75829048074090   -0.44427975312259
H          -1.74462810280378   -1.93268039975734    0.31143870114685
H          -2.15117262570032   -2.44219258452631   -1.09116654271874
O           1.17544622438390   -0.07446758670623   -1.65339033201102
H           1.49238664604119    0.84139632100016   -1.70125354000921
H           1.54329521331271   -0.43422563512881   -0.82638018238613
O          -1.16582006253144    0.59924137043719   -0.73763994851136
H          -0.35227322606441    0.29922114491491   -1.23918831661956
H          -1.77390763621497   -0.17767371985125   -0.72628353761672
H          -0.66918643019536    0.62320232063429    0.57177643842623
