    19
        -40.91873576
S           1.45064395680021    0.07927226269703    0.90385685143037
O           1.15044070793937    1.47828499028078    0.63252798191882
O           0.30774978386141   -0.60315007640074    1.48509890530101
O           1.95823432651708   -0.62484289957016   -0.26698515209003
O           2.61766386482387    0.07282339287396    1.96231716686612
H           2.36803680591774    0.76940077856260    2.56161218526241
O          -0.44930000478666    1.54215939823357   -1.36966818160381
H          -0.17378547108148    2.22099592958709   -1.98856031522242
H           0.17482824621505    1.60374423470201   -0.58946020624245
O          -2.11637179805544    0.45751399474391    0.70099578121826
H          -1.30286809692371    0.30163334299740    1.20953605677000
H          -1.88892204680889    1.10796631621664    0.02828849169505
O          -1.39888000649641   -1.97538432151258   -0.05844811538571
H          -0.73923249242446   -1.87777862676709    0.65607982648132
H          -2.02666043996753   -1.24173583413947    0.13438567769844
O           0.03915395002648   -0.94558498978179   -1.80464402638122
H          -0.63860512842881   -1.47940204892315   -1.14636559028279
H          -0.26084518940414    0.02233707628302   -1.79918444720171
H           0.92871902234442   -0.90825292005737   -1.25138288023635
