    19
        -40.92136399
S          -0.61126502038549   -0.36615633301479    1.19009295966768
O          -1.22039163195206    0.61057411716275    2.05848483121628
O          -1.31230667345204   -0.48138235160839   -0.10097212993017
O           0.80833398903267   -0.18099876966932    0.98949729688908
O          -0.79095701911564   -1.78331679429777    1.88358121064497
H          -1.58978308325465   -1.69317277557873    2.39538718076147
O           0.27428707136333   -2.25377591799045   -1.34367252934197
H           0.55148279344404   -2.88666083027653   -0.67904329116002
H          -0.43332405140597   -1.72245650579167   -0.93206698086937
O          -0.01213577671223    2.54584686154388    0.74026663820121
H           0.89048433233558    2.43163619578556    1.05061400863251
H          -0.55907136503704    1.96538548931066    1.31694329456593
O           1.72821080190070   -0.02454694107264   -1.45836917597275
H           1.67611032480161   -0.07446753175048   -0.47633772048129
H           1.38542691006583   -0.90346698296370   -1.73415124686181
O          -0.32731014576150    1.35748686033976   -1.49592453604804
H           0.62654758012713    0.83501842948525   -1.62824568960579
H          -0.89518289075083    0.62041829381355   -1.06206603894482
H          -0.18915616520150    2.00403547657153   -0.71401809136817
