    19
        -40.92135409
S          -0.67454984483285   -0.66876300756679   -1.23862080196993
O           0.58111001647366   -0.36633042054498   -1.88955428350154
O          -0.57938140545387   -1.85530503798868   -0.38709917251751
O          -1.23326998589879    0.46250157191129   -0.51526917137601
O          -1.71693853237770   -1.01779267655524   -2.37082385096986
H          -1.26492110030990   -1.68656025540906   -2.87595057262672
O           2.13712539791649    0.28629850010980    0.11536173907525
H           1.75859314070141    1.19347019165929    0.20374818337476
H           1.76423320732265   -0.02711522848140   -0.74224308300542
O          -1.21763226927215    0.26899190250454    2.12323752543706
H          -1.34102074481194    0.45142766150594    1.16401182613107
H          -2.01430686638761   -0.17332254540516    2.42203797796296
O           0.58633337561103    2.41034268160890   -0.14902177757548
H           0.73298179977007    2.87636294190477   -0.97398126591242
H          -0.17116656557352    1.81292750500532   -0.30404857901790
O           0.79956985373902   -1.19625814895527    1.57803116103392
H           0.09500352080536   -0.59575206169243    2.00122600134194
H           0.26896221345137   -1.63338867104340    0.79864912093628
H           1.48927481912917   -0.54173489257371    1.04030901318098
