    19
        -40.92267734
S          -0.33552804652096   -0.59079608009085    0.81893702807225
O           0.92905781890105   -0.03425955956835    1.24271833703889
O          -1.45044903994788    0.32704630472338    0.99962042962396
O          -0.26643751935913   -1.02174657233102   -0.59983012583111
O          -0.60098278392712   -1.87756053947917    1.64880879411849
H          -1.48363730668935   -2.16851473337686    1.32837661006529
O          -2.83456074719131   -1.86675497393142    0.27346490199307
H          -2.40461703827978   -1.94346579646231   -0.58441082300352
H          -2.76999670096450   -0.92843110212099    0.51333792103008
O           2.89981952620005    0.43208669136020   -0.40285469707210
H           2.28214807255792    0.26296073577589    0.35075669465570
H           3.41054138677168   -0.37146838421939   -0.51896339176085
O          -0.23945809729790    2.37707185563927   -0.09766634968867
H          -0.83240634133840    1.72165967222176    0.34128536368481
H           0.42127322973066    2.60403624082115    0.56254405223640
O           0.81722910004590    0.82079770271047   -1.80554714284468
H           0.30848691000615   -0.04800829425142   -1.39298194966795
H           0.38848659264378    1.58238717902044   -1.25933982987644
H           1.76103098502374    0.72295965364578   -1.41825580288231
