    19
        -40.91821037
S           1.24151691799477    1.03254692035673    1.15626303982011
O           1.88050837855909    0.76024769009892   -0.14262241513404
O          -0.03386039597454    1.70651431916780    0.96404841305906
O           1.15012946799855   -0.13981977147250    1.98755981379814
O           2.19550737016560    2.06005945174565    1.87923034324385
H           2.24017473381408    2.77514373166626    1.25178870615986
O           0.94262203650857   -1.19514389530229   -1.30723564705458
H           1.43476668377557   -0.35447543991755   -0.85646045443103
H           0.19006830918077   -0.80591478232454   -1.86271137207863
O          -1.21521234519322   -0.24197521179913   -2.35050437641023
H          -1.82050626322954   -0.87868828852682   -2.73525459579681
H          -1.59100371843797    0.02618711421521   -1.48271685230714
O          -1.95575066678020    0.20093130099323    0.18424104959220
H          -1.22373624866729    0.81088524724331    0.49248950470954
H          -2.76681296827359    0.59209736979715    0.51320485480622
O          -0.29737569921142   -1.91389604138295    0.74763604769437
H          -1.10187988312018   -1.37367360609138    0.66122572315621
H           0.46184039145389   -1.64836769842362   -0.48300877378588
H           0.26900388934768   -1.41265840032520    1.38282698090780
