    19
        -40.92136401
S          -0.14070547688456   -1.14446636872401    0.77029077782032
O          -1.09997222542206   -1.22045067811024    1.84397379291639
O          -0.78654295670450   -1.02278493441704   -0.54875883774366
O           0.86845697252054   -0.12433158832978    0.94463546322944
O           0.62317257238922   -2.53571856398667    0.72776962697979
H          -0.01309456293908   -3.16227486156252    1.06087652316570
O           1.38288602207830   -0.77033319364648   -2.10963121318337
H           0.55051340915783   -0.99477444184625   -1.65238303757165
H           2.05125808134411   -1.35293135899419   -1.74497534195591
O          -1.41064002297105    1.39497005166254    1.75898654926968
H          -0.58197445754540    1.68182121686824    2.15290701722668
H          -1.44537724763230    0.42297778239713    1.90918849727395
O           1.23514197397535    1.63203095088658   -0.96550454763045
H           1.33618283317173    1.11578949305742   -0.13336751129806
H           1.44143579652543    0.96407566036466   -1.65609560675506
O          -1.22848829160390    1.43513569504309   -0.78581074974960
H          -1.40443866230627    1.59490814196072    0.21036751565226
H          -0.17403980115794    1.67703370421020   -0.94908060853390
H          -1.20377394598665    0.40932328317150   -0.83338828912234
