    19
        -40.91899938
S           0.86324969433367   -0.37785371854631    0.77254444331228
O           0.67471482432846   -1.49859293075205   -0.12449801608069
O           0.71647994788096    0.90045340996759    0.01376947321713
O          -0.03399633629964   -0.39493406593379    1.90502539095907
O           2.31653497193596   -0.38888893846112    1.31829214507053
H           2.85989808975526   -0.18378759545665    0.52881292208874
O          -1.31967638330849   -1.36321218854025   -1.74951239507648
H          -0.48387709460419   -1.50665911104570   -1.22442710989980
H          -1.94366884281493   -2.02146471081388   -1.43521720370097
O          -2.49036028871433    0.23737522151346    1.44469391408621
H          -2.74338442790822    0.87999129504961    2.11061332801747
H          -1.59155941712072   -0.09753331786904    1.71591080468427
O           3.17146037051693    0.65057095013788   -0.94605840286588
H           3.67714628475403    1.46396490300690   -0.87895129072942
H           2.23068020110681    0.89617648567076   -0.86832617045272
O          -1.60883542265672    0.95528369136862   -0.81522236040442
H          -2.10507849979511    0.75478640383173    0.06590432445153
H          -0.59139742908408    1.04457303480144   -0.50346673859575
H          -1.59833023231600    0.04975118207156   -1.32988707808266
