    19
        -40.91941548
S          -0.78634761218730    0.51350124528165   -1.31489442796371
O           0.45996501085245   -0.07714993771813   -1.76789913398832
O          -1.70658886952491   -0.51851332938165   -0.82191942612382
O          -0.59346511099278    1.57716586926754   -0.35506161360212
O          -1.48741759822792    1.15376829589458   -2.57125561573183
H          -1.57862941336359    0.41539323780342   -3.16545045537919
O           2.15267139086294    0.82444193558618    0.24725246842857
H           1.65069023838072    0.79175932984352   -0.58150904817086
H           1.73260262657858    1.50082704016029    0.78245268708487
O          -0.52666392630430    0.82141462934165    2.12625859265856
H          -1.28120054367302    1.18546556825638    2.59295130507359
H          -0.54787484363839    1.21013051971768    1.21359388341001
O           1.50091766430322   -1.76280869855925    0.02049990078212
H           1.18697911626912   -1.39567206049751   -0.83288294796544
H           2.05237271717154   -1.03702631475915    0.37231946616764
O          -0.68891010139837   -1.54443846851085    1.18982261455508
H          -0.59451435616383   -0.68836931060600    1.73790406363864
H          -1.22280445753596   -1.21590932915945    0.34472145706681
H           0.27821805860239   -1.75398022187818    0.78309624997666
