    19
        -40.92174074
S           0.77868034071535    0.12602137023453    0.42437963539148
O           0.79522177774214   -0.44960577622173   -0.97974754370577
O           0.43509644641579    1.53166694740316    0.38299023576235
O          -0.05112205052463   -0.66579419692005    1.28425914397297
O           2.24630229253645   -0.00904305918950    0.88489802624351
H           2.73396034013056    0.74109002882134    0.45622497643413
O          -2.19734099411206    0.97234705151148    0.09177219970931
H          -1.32930117170664    1.39504046962010    0.19865775124177
H          -2.36066919192380    0.49892457568756    0.91177775784426
O          -1.58928558715421   -2.67266890392516    0.36149975941858
H          -1.08633348536160   -3.48856777279375    0.37899448068232
H          -1.06408056671542   -2.01327021420431    0.85344912725739
O           2.91471538784988    2.25256914161659   -0.20048029157143
H           1.94225410637081    2.31808729968170   -0.16990236763836
H           3.25928788955943    2.93541055929189    0.38066070355164
O          -1.53628980812152   -0.92665621952086   -1.64345193983900
H          -1.71430069121842   -1.70825668200404   -1.07079137190030
H          -1.97602075168375   -0.17157508231928   -1.18595909226584
H          -0.20077427315406   -0.66571953644023   -1.35923120051385
