    19
        -40.92343665
S          -0.96496834469646    1.12654587295157   -0.80321870166946
O          -0.64284474304736    1.90195685716298    0.37576748310335
O           0.12593336046670    1.13787108436420   -1.77900818054977
O          -1.38549587401697   -0.22824991950079   -0.48233943455508
O          -2.19430431989789    1.81555808630323   -1.50757460888716
H          -1.85818971573570    2.68190802054501   -1.71518222825209
O           1.94530231334317   -0.25723855412522   -0.82375966374940
H           1.46060513252131   -1.16348014549475   -0.81794166632567
H           1.28451007017519    0.36358562674687   -1.34477775231659
O           0.35729052711414   -2.24046738239812   -0.67018260259010
H          -0.41324525230266   -1.65130189294747   -0.80881885628760
H           0.28371143020465   -2.53825619134976    0.24328044922121
O          -0.58765631204280   -1.14250798979873    1.87913662700772
H          -1.01438411682361   -0.78199400584030    1.07066121454785
H          -1.19575414340894   -0.97533240383034    2.60048630521516
O           1.38201407624974    0.62963411639471    1.43581889799530
H           0.84196610915023   -0.08850487431148    1.82724444017099
H           1.86304077126263    0.11613068338033    0.17477198358625
H           0.71246904159912    1.29414298110381    1.14563630414282
