    19
        -40.91940432
S           0.46727681886170   -0.95774102007491    0.08500477019110
O          -0.45362165679140   -0.89885638457825    1.20091559789725
O          -0.23516852664756   -1.20947001259828   -1.17756429966009
O           1.28152010836333    0.25935020895855   -0.00977399876798
O           1.43690390392837   -2.15799546254425    0.28107102483056
H           2.03937384147968   -1.85368365965608    0.99216021062736
O           0.00513334776118    2.18000808833033   -1.21941219685854
H           0.53866378809298    1.52785922689322   -0.69425080789233
H           0.53734571421196    2.40443521412795   -1.98558617361391
O           2.91774201675729   -0.64684042817401    1.84831654636448
H           3.83452532169241   -0.50847016810347    1.59873496588991
H           2.38322404037865   -0.03687232163646    1.30377017367913
O          -2.71766416621698    0.27498189206313    0.82295730236636
H          -3.38981253567097   -0.38543228600226    1.00445675573254
H          -1.85123147683019   -0.13248255138389    1.10184713846864
O          -1.91276315111540    0.55594987087525   -1.54692224249072
H          -1.24222634542350   -0.27673954151907   -1.49420559025080
H          -2.38414743188348    0.51765432408357   -0.62175833936836
H          -1.25507360096136    1.34434501094697   -1.48976083714391
