    19
        -40.91384617
S           1.11896178347341    0.72731778762852   -1.41011842440941
O           1.82957459964976    1.27024907554643   -0.24025742598241
O           1.71378556207243   -0.48377646351329   -1.90175843520476
O          -0.30610531849462    0.59554690849154   -1.12276791854484
O           1.23492623661033    1.82874466243745   -2.53782566982916
H           2.13374970213179    1.76310673480794   -2.84893107860537
O          -1.40628537120009    1.12847596947371    1.24586847155853
H          -1.17615139834217    1.18460172897633    0.29451676841962
H          -1.96219646222342    0.32238423907458    1.32554867676380
O          -2.41503282182719   -1.36140635556859    1.06786880512464
H          -3.02694343225452   -1.50051447066372    0.34288106299835
H          -1.57768539383232   -1.77145483869889    0.80792495907616
O           0.19653654322142   -1.67938383340606    0.08301445730421
H          -0.08128384718321   -0.92538761185542   -0.48734295283313
H           0.91424095064531   -2.08350835764207   -0.41521985605386
O           0.85291686287023    0.22727731346490    1.75806477504013
H          -0.12246295927752    0.68824889822614    1.71002816136844
H           0.70071367634844   -0.67561370672079    1.35864240418843
H           1.37874109761794    0.74509231994469    0.96986321962632
