    19
        -40.92007382
S           0.40991759119836   -0.47346019461515    1.24775678757618
O          -0.70818216705442   -0.56560316178018    2.15976221467655
O           0.21000706279406   -1.33384445638274    0.06416833031063
O           0.77132646885912    0.86421731375815    0.85872511302973
O           1.66397989508858   -1.09044299232726    1.99651945127657
H           1.28836909894394   -1.78099811385444    2.53446920717377
O           0.45609835894421    1.58439702477182   -1.64743037881499
H           1.18956652841333    0.98045077121239   -1.90918553204831
H           0.57977568142502    1.65535929702356   -0.67452007951393
O           2.22410952557940   -0.39205652829172   -1.45499742706857
H           2.89929266080939   -0.11800302262325   -0.83123861436374
H           1.56821843926940   -0.89260306339027   -0.93447403158161
O          -2.52763396560564    0.66954745001070    0.76041955135794
H          -3.38453061231365    0.33063427237777    1.02883954680144
H          -1.86547147044731    0.28062904805523    1.38427386858926
O          -1.37904408990181   -0.05122092459301   -1.39679724961358
H          -0.64766864487407    0.74081031352697   -1.63717593562591
H          -0.78077177764991   -0.72350945875823   -0.89996636833870
H          -1.96735855348959    0.31569643589117   -0.64914844382281
