    19
        -40.91836586
S          -0.14386091181272    1.04987522758712   -1.66373089452970
O           0.88263669383678    1.84924851761584   -1.02052546198353
O           0.24389145100812   -0.32621363411948   -1.87190882930550
O          -1.42566895798210    1.16408373533376   -0.95020137441608
O          -0.38876018953973    1.67948017883023   -3.08927334008131
H          -0.49312137657558    2.60477817418712   -2.88929783596820
O          -1.10124782235264   -2.00229564673420    1.46093542958234
H          -0.28153358648654   -2.04089483749192    0.91986344437270
H          -0.90044562539361   -2.40614820491971    2.30730957927195
O           1.18121788009770   -1.69402305966142    0.09237347594564
H           0.82641905462173   -1.19368260898546   -0.69482174970365
H           1.74497299713536   -2.37762652252553   -0.27363684638768
O          -1.23323775763782    0.57177459730087    1.43060293623761
H          -1.41277622861430    0.86020660316026    0.41250588010452
H          -1.35121328550739   -0.43427456353148    1.46553353098727
O           1.25944029826073    0.77894442311430    1.31426443597838
H          -0.19225202668454    0.72545139605581    1.52695763899968
H           1.51342509530308   -0.11930435651258    1.04448812648140
H           1.27211429823144    1.31062057136599    0.47856186442787
