    19
        -40.92136402
S           0.37643285925561   -1.17034431184687   -0.63962114752656
O           0.98927451258302   -0.76145751795697    0.63665987074654
O          -0.39221038269016   -2.38361734324585   -0.51369041528563
O          -0.34258592349894   -0.06964343498836   -1.24061320865952
O           1.60020557922757   -1.49073259926127   -1.59935236135829
H           1.76489596387629   -2.42009500833748   -1.46666982961463
O          -2.39759599323812   -1.01125082311143    0.50738702769695
H          -1.75118031837291   -1.67667711865785    0.17929812001428
H          -2.72253696694029   -0.56524558750068   -0.27974950200480
O          -0.44230685049755    2.21838923837912    0.03148228103802
H           0.53248724498195    2.33628104518966    0.06959714880114
H          -0.54532526522780    1.52150520749326   -0.65644057597009
O           2.13227526749366    1.54685377891777   -0.11800521925804
H           1.87951392681501    0.66531154240501    0.21548696910284
H           2.46262681821638    1.40888653626926   -1.00736851575370
O          -0.82261855154929    0.52564840927769    1.80017459332586
H          -1.59160335660118   -0.03662808909748    1.42513534448633
H          -0.00284054918745   -0.02690874672603    1.52185098683680
H          -0.72690801464700    1.38972483278622    1.13443841338294
