    19
        -40.92343623
S           0.83808180976204    1.44364115678657    0.24391069397367
O           1.30718061753702    1.22449743847460   -1.12522268839613
O          -0.51478121355903    1.95699251640428    0.27526835057569
O           1.00262671825414    0.25509191411235    1.06579622611039
O           1.78251669652498    2.54255023907031    0.86212556109627
H           1.66581167512023    3.27674853875849    0.26727280574162
O          -1.22395056653671   -1.09904371762893    1.57381238750266
H          -0.41482786965251   -0.54361882837964    1.52355441652282
H          -1.68285557541959   -0.83291031389958    2.37169143408072
O           0.06956546905559   -0.74792637488636   -1.99031431488622
H           0.44400645934215   -1.45977064078878   -1.35053413910598
H           0.65070379374651    0.09441272036641   -1.77640826125083
O           0.95979731552179   -2.15983406870877   -0.06872810309801
H           0.22904885380949   -2.51390710192511    0.45005869335521
H           1.24419667836543   -1.35343737799253    0.40983531422029
O          -1.94977649028664    0.02783056665366   -0.75404957048621
H          -0.88146637156924   -0.47277917848907   -1.58525635436551
H          -1.94291453611626   -0.52912029184302    0.05244670064410
H          -1.58296346390314    0.89058280391784   -0.44525914221766
