    19
        -40.91892674
S           0.59242691913010   -0.50361682614135   -1.20569952809244
O          -0.46500954123896    0.47456932753795   -1.27011179819029
O           1.92945081094359    0.04639887201325   -1.26880420867544
O           0.42871176820796   -1.38152313630548   -0.03179789880514
O           0.41921182850986   -1.44752569611379   -2.46253771329491
H           1.25571168710641   -1.89695611314740   -2.54016508929597
O          -2.37498213731663   -1.16149493588361   -0.28696375007940
H          -1.83205042875489   -0.66608683266348   -0.92290228854034
H          -1.79470856625503   -1.85464875088009    0.04117635029328
O           2.00569316021827    1.61732513563923    0.79867308025494
H           2.90934711899872    1.63332960226332    1.12153774945414
H           2.02453889965800    1.12000109044967   -0.05894950658683
O          -1.91106241315004    1.14948722030888    0.97034367092200
H          -2.38707586191884    0.32648133920093    0.71624348745042
H          -1.53389977250821    1.45497352658095    0.13008369505132
O           0.20854656689266    0.18332488667704    1.88048057024910
H           0.30479632752188   -0.57911949026150    1.16227330241063
H           0.94003043135066    0.84307779599962    1.60200576970706
H          -0.71967679732595    0.64200297479040    1.62511411576464
