    19
        -40.92136399
S           0.58070492890916    0.86876749120434    0.91152662238820
O           1.85551671885718    1.49237506044361    0.65712920315118
O          -0.46119600128546    1.32316970291542   -0.02647372810694
O           0.62552729065834   -0.57483435008719    0.97003027552426
O           0.09440802390195    1.36600126457362    2.33883925999085
H           0.48835995402267    2.22875482579652    2.43238879431942
O          -0.99638679420128   -1.95364810001690   -0.55794840637465
H          -0.32335807109371   -1.71133847937324    0.11848231658455
H          -1.81673245372016   -1.55300589212539   -0.19448072938559
O           2.29095669134993   -0.19426224518170   -1.32074464540113
H           2.28342327096692    0.52531264907063   -0.64945215797663
H           2.47623042276921   -0.99800108470774   -0.82701667755923
O          -2.51209409295821   -0.21290242016804    0.77449795310396
H          -2.45437651184917   -0.27044997884350    1.72967821162762
H          -1.87982630648905    0.48060080022891    0.50713069862896
O          -0.15863374444747   -0.14885920451116   -2.03480445443034
H          -0.37800456742735    0.58566697227504   -1.35091163909043
H           0.85845656472026   -0.22374384164911   -1.94311869094282
H          -0.57297531269206   -1.02960317983771   -1.53475218603394
