    19
        -40.92079100
S           0.38906821247320   -0.97895220494823   -1.04738755841696
O          -0.89263971950041   -0.31427376669547   -1.29140823101653
O           1.27535466698109   -0.13416133410231   -0.25880516267229
O           0.23001130143761   -2.31397754402094   -0.53112760669881
O           1.09018224701575   -1.10275912020346   -2.46092951407399
H           0.56277346650585   -1.75460381787805   -2.91208796170095
O           1.11813586810901    2.43491878764171   -0.76263155945225
H           1.75718284316116    2.89032595702520   -0.21071525552025
H           1.33348599073024    1.47388610355465   -0.70866284691069
O          -1.22100553704022   -1.89765523760941    1.63835290422752
H          -1.12020490408452   -2.66035051842334    2.21104207461850
H          -0.75555268055787   -2.11993649142683    0.80306684262726
O          -1.19506507772252    1.72792068513647    0.07422986618106
H          -1.21073230268614    0.88513769741813   -0.55868186331184
H          -0.38746804878777    2.23504062945328   -0.27331934510173
O          -0.11064907530123    0.47454718045429    1.93582373339529
H          -0.85316296316507    1.28885774342803    0.98408214876275
H          -0.62958101374143   -0.35798423937924    2.03449292999070
H           0.61986674618753    0.22401949050173    1.33466639505614
