    19
        -40.92218953
S           0.82465341097787   -0.07267089647994    0.80897822138724
O          -0.45334034916791    0.37283055058278    1.35503741911578
O           0.66885089971210   -1.31569541421276    0.06044701357391
O           1.44710096203227    0.96816479911922   -0.00899125984088
O           1.79593602886895   -0.33757893324643    1.99612924063882
H           1.32453251244909   -1.03397030664341    2.49896730651485
O          -0.06200679624155   -0.97968101762303   -2.40439754779484
H           0.63140554993643   -1.36023429462465   -2.94783097847125
H           0.16682697932961   -1.21175508866267   -1.46418590682094
O          -0.11585487138883   -2.04981180753661    2.57717186632643
H          -0.70681687978840   -1.28975297018162    2.49295396107930
H           0.00625260587629   -2.36874323217745    1.67323764346262
O          -1.88425989774807    1.76083969306190   -0.30287328546367
H          -1.43471883632492    1.19722564248873    0.38302564093472
H          -2.01526123126191    2.62017874020482    0.10368745544089
O           0.01345087447208    1.50147265027428   -1.94680112519663
H           0.72412818519743    1.37563940955937   -1.16669794997949
H          -0.08011904364283    0.53239280050447   -2.29835247491911
H          -0.85076008325356    1.69114966562819   -1.40950523005310
