    19
        -40.92135268
S          -0.19930671007068   -0.84909520597875   -0.15926818798699
O           1.00232789297440   -0.57929385950399    0.65543087098081
O          -1.41066229320017   -0.50295357139659    0.57810115254688
O          -0.11346701763222   -0.16587452429053   -1.43201334015279
O          -0.22122279257652   -2.37637121804897   -0.43910519408819
H          -0.53930501991764   -2.77974635560159    0.40082815907667
O          -1.09784312378606    2.07935557771375    0.17289449767305
H          -1.36501683420495    1.16601016275531    0.42328235138252
H          -1.23144936225248    2.12842674322259   -0.77818305891174
O          -1.43716885592936   -2.81277479429187    1.84346286144517
H          -2.30106965133314   -3.22998690248226    1.80245969269490
H          -1.57570830899785   -1.86396672696015    1.65438304608771
O           1.86378346671935    1.46724813112721   -1.93694988816640
H           1.10201531975594    0.83688284972323   -1.91899956978495
H           2.63201358602554    0.95247676575649   -2.19126690289903
O           1.41260844907243    1.82644950368160    0.54427528575687
H           1.74015535098801    1.85377595180019   -0.42278114065644
H           0.42992743952463    2.11172647670324    0.49471119765465
H           1.30938845484901    0.73771100606997    0.70873817734283
