    19
        -40.92343662
S          -0.17882368175417   -0.04554428968057   -1.67680107439806
O          -0.79920365309913    1.26743288748768   -1.49288090916635
O           1.26493851678621    0.02462240545759   -1.60360701065443
O          -0.73619554203322   -1.03572469011877   -0.76905675854189
O          -0.56210002072894   -0.51466922618952   -3.13107741930249
H          -0.19529563292862    0.17397605345165   -3.67672005849224
O           0.80581088259791   -1.69317100081991    1.28990321594803
H           0.28094113380733   -1.57751662435685    0.46717880950739
H           1.39121748644229   -2.43506475386651    1.13215300732827
O          -1.73771662758461   -0.26695756762683    1.58211842830796
H          -1.16800744242789   -0.81730716167327    2.13083617287371
H          -1.64355332197513   -0.62768006269174    0.67597060704403
O           1.73765821533822    0.78878413477814    0.85346679312633
H           1.76632872936494    0.60268946160724   -0.11526863855790
H           1.57375650408114   -0.09044765049523    1.25414578482856
O          -0.51303486623023    1.85797785963948    0.90223338375461
H          -1.08788188082936    1.11316345509254    1.31624773873847
H           0.49662223835191    1.51727445674981    0.98403584400398
H          -0.69546104716806    1.75816232324425   -0.12287790631531
