    19
        -40.92079018
S          -0.69435867092705    0.11551082033077   -1.30778048831726
O           0.15462586778596   -0.97734240053161   -0.85385299598822
O          -1.41993352230998    0.71773735530402   -0.18782004094929
O          -0.01669946874348    1.09446785562117   -2.11817995103708
O          -1.79130477310234   -0.56818095191495   -2.22125729232216
H          -2.23078490849784    0.17190966347834   -2.62838277174112
O          -0.59569179304684   -0.04474949198391    2.01808570947703
H          -1.04310277029444    0.37215402335982    1.15953989456404
H          -0.77419492050529   -1.03516039206790    1.88655399540919
O           1.51845999788158    2.31312318742320   -0.34463512871227
H           2.22419942862106    2.75499420422112   -0.82057674401197
H           0.91087939349535    1.95501011490612   -1.02749391629870
O          -0.82236261287797   -2.42460025600691    1.10355927949537
H          -0.19262052637154   -3.11954432968948    1.30528534656733
H          -0.53806773137090   -2.02773172906331    0.24649898576140
O           1.69592049884545    0.08085824484758    1.04598665825357
H           1.39173943375195   -0.44048642335548    0.27557141961687
H           1.78551109954812    0.99594631292597    0.68996238020861
H           0.43778595818434    0.06608420225679    1.77893565006201
