    19
        -40.92267744
S           0.86996142780109    0.58068440915278    0.20320042788074
O          -0.15872765302320    1.12144518051763    1.06228085004593
O           0.79816930175551   -0.90144808729965    0.17282369881607
O           0.81003425444961    1.10346254061590   -1.15378691910571
O           2.25156165970796    0.93470168417443    0.82042862430236
H           2.88616115117724    0.56665939796741    0.16615515489682
O           3.11678408314920   -0.27673799130824   -1.33944776601362
H           2.70755920283777   -1.12106142019765   -1.12371932490251
H           2.40656435183982    0.26656720065602   -1.71669233342601
O          -1.76656801535104    0.72193429797518   -1.44004870532861
H          -0.80440738842997    0.93433127205083   -1.49858099784894
H          -2.14156440662548    1.39655897227001   -0.86720591013124
O          -2.05897714393701   -0.33473698725609    2.09835817053186
H          -1.38209494003097    0.33739923311990    1.83682206070061
H          -1.74256238937940   -0.73469007031162    2.91076555500880
O          -1.57582944187866   -1.44757158941567   -0.13320772222620
H          -1.79398312096258   -0.66013740133445   -0.76205310737168
H          -0.50094749895312   -1.33785842939633   -0.02118380001013
H          -1.92113344413340   -1.14950219200930    0.78509205419268
