    19
        -40.92279210
S          -0.34097150231991    0.90299310362954   -0.39927111393163
O          -0.39636562251986    0.42951861232265    1.07412515165895
O          -1.69177132783014    1.04805451602023   -0.84196944198127
O           0.52820522473260    2.03073446757020   -0.51972033883082
O           0.33847460212827   -0.27338847959748   -1.14278611710608
H          -0.28453392534310   -1.07899614768239   -1.12310020382191
O          -1.33823298032604   -2.18175685206673   -1.03588117693989
H          -1.80761090185648   -2.25275557161620   -1.87045408985558
H          -1.99603488812451   -1.82913550980413   -0.37961608537310
O           2.92189094710196    0.86856765556836   -0.57506892873801
H           2.75698890812002    0.13493223641449   -1.17263327822153
H           2.16194792129703    1.47225882973361   -0.68836156354749
O          -2.93175338128218   -0.84054702796993    0.56537082975500
H          -2.53556631745575   -0.71605748706711    1.43145118189766
H          -2.70352299164412   -0.03788494339628    0.05708465246422
O           2.02684650565176    0.35417409760704    1.84027558270573
H           2.50862570796324    0.47053617895289    0.97867179369926
H           2.22988274075730    1.13190561052982    2.36540199113471
H           0.55350128099977    0.36684673084874    1.43648115502352
