    19
        -40.92279209
S          -1.01222941379853    0.23536752485972    0.10341455079753
O          -0.29586576725743   -0.37962592381148   -1.12431483852356
O          -1.51682452672050    1.50891731547684   -0.30283083436981
O          -1.93495751959684   -0.70573498481439    0.65534376911078
O           0.12169126879636    0.41928475124503    1.14194432890500
H           0.76825518268990    1.12892263695717    0.80149346957860
O           0.29752090427384    2.26686962403750   -2.09692716488088
H           0.42188338022202    1.45204618471308   -2.59002669132722
H          -0.51958419653377    2.13466457792010   -1.57774889441253
O           1.62216213088399    2.22805237899791    0.17159792898034
H           1.26737891011539    2.30228521728716   -0.75380898010963
H           1.43754478747151    3.06970509288509    0.59517175501227
O          -0.32916525091309   -2.26183442101568    2.09841721707450
H           0.22943777450746   -1.60678284899486    2.52436694463437
H          -1.08845071679687   -1.76244075527888    1.73935660628892
O           0.42608161589781   -2.70097483426954   -0.37884209550369
H          -0.18073999866059   -3.36023184524397   -0.72379353933539
H           0.03051163113445   -1.31349700041753   -0.88208727530599
H           0.25534981428960   -2.65499270054416    0.59927375338988
