    19
        -40.91990220
S           0.71524387060069   -0.87257762675553   -1.00556378399783
O          -0.09858623932048    0.28567404747970   -1.33961713065900
O           1.00706993362171   -0.87307081379079    0.44637769316803
O           0.16209421472503   -2.11778755423819   -1.45027341002266
O           2.10910378037542   -0.66161324671150   -1.71343282323019
H           2.30268316057412    0.26867905510334   -1.61857229044139
O          -0.82430918190486    1.90062188377820    0.58088292555829
H          -0.64877103403340    1.50446969790288   -0.30449356799753
H           0.07168207382029    2.11064181880924    0.90954041725553
O          -2.24470579343098   -1.43364029587039   -0.62922924282065
H          -1.43761999622580   -1.87762482861261   -0.97747438475253
H          -2.42950386400038   -0.72803440511523   -1.25631943543938
O           1.81365592811997    1.56560481330873    1.06450661731619
H           2.35457204872344    1.57617882740863    1.85582472938960
H           1.62897745905651    0.62270806220977    0.86600635596530
O          -1.22878652017238   -0.39264300407557    1.45366263249682
H          -0.27475092439963   -0.69923810616593    1.19844578914773
H          -1.17909477049191    0.65653864019077    1.20276977027882
H          -1.79895415559688   -0.83488695486108    0.71695912879792
