    19
        -40.91183817
S          -0.69424425224205    0.88266402684155    0.18655293993842
O          -1.66163081812272   -0.04285533034579    0.79246781004945
O           0.13007024638112    1.52764466264492    1.17696282323694
O           0.05130686027191    0.21584379300671   -0.86475595293161
O          -1.55201431606869    2.00582178296761   -0.52362166360238
H          -1.89819496603985    2.53289822236004    0.19176555476419
O           1.65590095660952   -0.53296549942852    1.62714165160928
H           2.24114987508380   -0.54397849295120    0.86477973029614
H           1.18645148075955    0.33609061591343    1.59233346946789
O           0.02258030268875   -2.38844687159078   -1.14775668556743
H          -0.70691978902109   -2.64333165148644   -1.71607751326730
H           0.10344620703877   -1.40752514019410   -1.21683504552615
O           1.07624727462257    2.56939665798182   -1.87684678858332
H           0.81911353776107    1.68845273389125   -1.57672313784017
H           0.25678657166181    3.04940911401949   -2.00797948448799
O          -0.34344804047420   -2.05355706497015    1.33981857221754
H          -0.20182701640245   -2.39602371348387    0.38228766424108
H           0.53607987504289   -1.55796550632448    1.57631706728910
H          -1.02085401965644   -1.24157235877534    1.20016896880468
