    19
        -40.92071445
S          -1.17006901103686    0.04231730611728    0.90905487751286
O          -0.22394902418775   -1.08526062231409    0.79361281272231
O          -1.00432586932446    0.75144377952440    2.15692134927987
O          -1.09855113652397    0.88524883296262   -0.26203968847316
O          -2.60915259703980   -0.60922461093531    0.94162332352506
H          -2.76091232886749   -0.78128362270329    1.86660056905205
O           0.96755851349316    2.19114028493455    1.21249454212980
H           0.26029386782875    1.74874796737592    1.73891643866730
H           0.49904665497300    2.70851562401160    0.55084371414430
O          -0.11638635571834   -2.17373014010101   -1.65606280118629
H           0.28412585390991   -3.04248697040589   -1.59946260758655
H          -0.28260044693603   -1.88177272707984   -0.73772348342305
O           0.69403475976550    0.32521510114263   -2.10032714651168
H           0.46112155008419   -0.61132181831743   -2.27403095355327
H          -0.10009977644774    0.67857129027328   -1.63700137134238
O           1.86860765034918    0.10990732907694    0.06775589825610
H           1.50812055899662    0.23455757594153   -0.96243354694335
H           1.68443292334228    1.00861132855689    0.53642203442751
H           1.13870421256920   -0.49919587858052    0.45483603038136
