    19
        -40.91966072
S           1.60723142870709    0.03790939949488    0.58942327828194
O           1.75043100281273   -0.90502811906426   -0.50890772522592
O           1.50917990296496    1.41570273542599    0.08340232583043
O           0.51772732180574   -0.28335077336986    1.47756026827590
O           2.93854216084300   -0.02145548539811    1.42738488056363
H           3.60664070438180    0.18668107421457    0.78152818924381
O          -1.64018417587194   -1.65920305916550    0.45063766034035
H          -0.79637952526065   -1.51166820166131    0.90853003206279
H          -1.42952021538276   -1.65899551664546   -0.49017189695077
O          -0.37773425074052   -0.71083525972647   -1.92043560728687
H           0.47218342478441   -0.86650108888065   -1.41454447157671
H          -0.16253334941521   -0.81773981137514   -2.84890726318707
O          -1.95319922330334    0.83630998279059    1.25466640036652
H          -2.18162690326765   -0.08974134593244    0.99572173947270
H          -1.15366712102513    0.71588916221745    1.79287331121078
O          -0.78172880232596    1.58585877661117   -0.81673770003802
H          -1.37396703483986    1.36053786092605    0.05161141444502
H           0.21281074125504    1.64528358341056   -0.44399723350554
H          -0.76420606612196    0.74034607613026   -1.36963760232745
