    19
        -40.92279205
S          -0.80867390705917   -0.21302327945381   -0.62673370733850
O          -1.62756207930091    0.83319829460510   -1.15257225806382
O          -0.81033138810042   -0.05758809069493    0.91406755661871
O          -1.12962417213254   -1.55866720495086   -0.98442102480336
O           0.67032168411531    0.01988884720912   -1.02242698107120
H           0.91368925326687    0.99014795104245   -0.83038537708233
O           1.11295843914864    2.47229619569501   -0.51811606536996
H           1.07735978303710    2.98551091551920   -1.32878725563476
H           0.29964163690341    2.71675334720353   -0.00180787297316
O          -1.23385456791603    2.77716784945461    0.62254910344028
H          -1.60011498550690    2.18015718307041   -0.05871463075132
H          -1.28853535714762    2.28811137814808    1.44739300473797
O           1.20692467428956   -2.78530308104393   -0.64039651548367
H           1.80790697655747   -2.15433413215659   -1.04438358101966
H           0.31388683931497   -2.51897861200674   -0.93430316083989
O           0.52470233639470   -2.03895075618488    1.78382102920127
H          -0.27553578051212   -0.82180086357317    1.32321235903935
H          -0.06997804003361   -2.71895513223201    2.10905341013932
H           0.91681866484104   -2.39563079965354    0.94295196719274
