    19
        -40.91966070
S          -1.32216718974094   -0.75492948302850    0.78367589940175
O          -0.46977029323943   -0.46253214368728    1.92562939954953
O          -1.99394522381359    0.46490448534708    0.30943195296557
O          -0.63048185136157   -1.43312821065640   -0.28437026042903
O          -2.46613161141345   -1.70933886755692    1.29181331219139
H          -2.86604709737889   -1.20810387136405    1.99587294555123
O           2.08022575590592   -1.00286900274947   -0.56698386030651
H           2.22356519889061   -0.30023991314571    0.07745707840010
H           1.25841648403100   -1.44384209915419   -0.29602160928685
O           0.42104903227716   -0.12748577088742   -2.42595075548407
H          -0.21958972961572   -0.77690237944347   -2.09172672697397
H           1.26409031280955   -0.41574413063800   -1.99855928422446
O           1.31763616139605    1.17638435510028    1.10169768954533
H           0.67266606681892    0.52198113380358    1.49943530843530
H           1.52525937231449    1.80585168631939    1.79485113100519
O          -0.23702894905454    1.72015876137301   -0.88416752024611
H           0.05161906073564    1.01736003274589   -1.64470409280578
H          -1.08098799194555    1.26726079041596   -0.42099047934084
H           0.47162249247506    1.66121461714865   -0.16639013802581
