    19
        -40.92120609
S           0.84890391617280   -0.84995449584606   -0.67807516197575
O           1.86959323420194   -1.58778980721180    0.01392518562922
O          -0.50523887608232   -1.32085815913455   -0.38552013341468
O           0.93814575103984    0.59607183926443   -0.55610607331067
O           1.05817391607495   -1.12900249890206   -2.23667099900282
H           1.42769868804410   -2.00631374736446   -2.26924366471807
O          -0.25785140218576    1.44700338523507    1.68061574968951
H           0.05221216760603    0.66632956842738    2.18810596210421
H           0.35736547386453    1.47613931641857    0.92352309079388
O          -1.10434507098741    1.47613422201836   -1.93924858308369
H          -1.17456761789884    0.94647827439891   -2.73563539176176
H          -0.22437618485080    1.26818061972552   -1.54846804358508
O           0.86655999825967   -0.86265843941703    2.37723435271717
H           1.52352986786223   -1.05410049900423    3.04989428192185
H           1.23037014053393   -1.20012753311063    1.53576340805591
O          -2.05682733223474    0.50436747928437    0.23191647820892
H          -1.42331740745289    0.97907471446910    0.94942803279731
H          -1.91602574368679    1.02255782481026   -0.62850591462513
H          -1.51000351804204   -0.37153205431638    0.02706742358523
