    19
        -40.91889816
S           0.25238089515445   -0.47199058269313   -1.39928318537445
O           1.43306855624772    0.20898405235365   -1.88884133775425
O           0.54270322847175   -1.18463342711043   -0.13631133647633
O          -0.91227511490471    0.36101771827528   -1.26148570173203
O          -0.08108363462286   -1.60132831483335   -2.45304024638902
H           0.77716773331746   -1.85334504527582   -2.78028074336231
O          -1.82099503241067    0.83786415219453    1.13918569452978
H          -2.07157861975363   -0.08934666704553    1.34208254865022
H          -1.69566369568468    0.82994978321178    0.15893587375012
O           1.66094601919968    2.19538092102951   -0.22636499237558
H           2.58797977204496    2.44168527529586   -0.19681254183349
H           1.57044833178301    1.53535918464760   -0.95929076224673
O          -1.69099608782124   -1.82124473231806    1.21257459839929
H          -1.47187979270452   -2.49112036444701    1.86185817790222
H          -0.90979377080142   -1.72863779641089    0.63168943567459
O           0.60490115649133    0.69565090199319    1.54091839236084
H          -0.50463660761422    0.86455391345267    1.48573574040578
H           0.69146648610914   -0.14671040953882    0.96320778903957
H           1.03784015747901    1.41791141742651    0.96552259677886
