    19
        -40.91966075
S           0.84251124938583   -1.01803399309104    1.08893615003636
O          -0.18417108449534   -0.49359253396997    2.00277535246957
O           0.27304280994196   -2.00871955578845    0.18873987630598
O           1.53802895552578    0.04224982156379    0.40264388274450
O           1.88947662815126   -1.76460527334000    1.99690403845932
H           1.36971956823005   -2.45103848621684    2.40375414376484
O           0.73133124505562    0.69587118880941   -2.15198692364043
H          -0.06359011772460    0.15731064534316   -2.23889174141508
H           1.25460787163009    0.27996686547718   -1.44726703693921
O           0.37665409998718    2.43059473748272   -0.19283953764960
H           0.47186423915768    2.07522246556649   -1.11008558230906
H           1.07004400416414    1.95447953839919    0.29297228243391
O          -1.50270948956120   -0.79525721109625   -1.20195062473166
H          -2.24270371705663   -1.38256078196451   -1.36715865041578
H          -0.81342887012049   -1.33929145014906   -0.72093924582565
O          -1.52993904577937    1.03774747929507    0.61341750326531
H          -1.67760873154022    0.40845744195396   -0.16318085168430
H          -1.01534976034343    0.42786654260732    1.31733032725351
H          -0.78777985456431    1.74333254913813    0.28682663785956
