    19
        -40.91885170
S           1.00321297206840    0.25623304275301   -0.66073677678406
O           0.51373015110304   -0.95329488229041   -1.28786268247796
O          -0.15711458741416    1.05203409122774   -0.15303302703014
O           1.95467367336856    0.02635761874237    0.39801698171644
O           1.68925094306251    1.14679650358061   -1.73513768047799
H           0.95216814320645    1.40133552229138   -2.32618020976453
O          -0.69462506761339    1.90718670031980   -2.59383925584867
H          -0.78070703179923    1.64501015518913   -1.65739579086097
H          -0.82404216994871    2.85781693310723   -2.62786987228014
O          -1.26636251359940   -2.26615906158636    0.03051836331943
H          -0.52412592183670   -1.88823336959324   -0.51878413928898
H          -2.00885958179388   -2.37487868189773   -0.56750164604640
O           1.03498243356673   -0.66737787011090    2.71800449620855
H           1.50861525668763   -0.49416982067915    1.86170147586495
H           1.36939733471884   -0.01990364874643    3.34223317757754
O          -1.20948719500210   -0.31249206440381    1.61800983478115
H          -1.35179672937773   -1.18110172848031    1.06579865736526
H          -0.37958464977165   -0.49582853447465    2.20863158834127
H          -0.82932545963687    0.36066910505544    0.88542648567878
