    19
        -40.92136399
S           1.17026398555408   -0.52695065228261    0.52540553105274
O          -0.15272013602766   -0.98371807923579    0.98682204821573
O           1.90235859471320   -1.56786897807854   -0.15236531903223
O           1.05670046102366    0.70501963525267   -0.22231297313375
O           1.97133958660325   -0.18044376306574    1.85164041874602
H           2.41158448784674   -0.99457859885535    2.07889517399583
O           0.50846643078519   -1.12759336500358   -2.34512132015599
H           1.09337737609686   -1.44633366727044   -1.62073291847455
H           0.89159413202624   -0.29327831545291   -2.63018887846175
O          -1.32309959947047    1.72700818572635   -0.62136425667358
H          -1.54359285449878    1.80455448021755    0.33308174371403
H          -0.34698413982279    1.59973989714639   -0.60467515238400
O          -1.11174316169699    1.30902229073980    2.00224876912090
H          -0.37305970983266    1.75089207918924    2.42444723874605
H          -0.80283030537412    0.40745314884884    1.79257473438001
O          -1.62997756546057   -0.69932258695300   -1.02042513815552
H          -0.90057829072011   -0.91814432789671   -1.70515650196450
H          -1.17355986888009   -0.95674540376609   -0.13686280099207
H          -1.64753945294356    0.39128802073026   -0.93591038856753
