    19
        -40.92343517
S           0.57992664427931    0.22828462972763    1.56756183098839
O          -0.83226437028194    0.42627440844518    1.81458963508180
O           0.92588660108681   -1.19156811341808    1.48278315608371
O           1.05134685319132    0.96733143018741    0.40702275692772
O           1.36919376585388    0.79914825187111    2.80572351586410
H           1.06624654017768    0.24665311707335    3.51953965151761
O          -0.01632156735632   -2.02065563038272   -0.66102197252195
H           0.55107890851556   -1.45981177606027   -1.30889021831638
H           0.42009743093741   -1.82609228265205    0.26890360542355
O          -0.81888926591955    1.63607634597580   -1.35486103464313
H          -0.13618958303813    1.52922527016002   -0.65611048674879
H          -1.22813072262995    2.48874104841244   -1.20148814778717
O           1.32573029650636   -0.27543315823302   -1.93858892324300
H           1.50914381650876    0.21099784197030   -1.10799377187984
H           0.73464006951974    0.29788184162601   -2.43900345095149
O          -1.99447383863356   -0.54514831762577   -0.31769513927471
H          -0.95084116780321   -1.50639369616294   -0.58240705450969
H          -1.76062468020479   -0.23294767313633    0.58904613377395
H          -1.79555574072438    0.22743644223813   -0.88711008578221
