    19
        -40.92279214
S          -0.70803478917977   -0.29315259037948   -0.70949539227816
O          -1.66940549520742    0.63387276146491   -1.21738625214364
O          -0.84599138344762   -0.28767990502120    0.83305451883354
O          -0.74600534587300   -1.63449572323149   -1.20048149630150
O           0.72532133054641    0.23829619597512   -0.95674485947726
H           0.76977161131432    1.21331617764716   -0.66533188078882
O           0.66753531567693    2.66995546651003   -0.21646753771493
H           0.59498530363905    3.24477414578049   -0.98209841648399
H          -0.21164670828859    2.71417158320357    0.24494825303688
O          -1.76984157518068    2.43916618421554    0.73608597889592
H          -1.96965615391894    1.85369841045144   -0.02019894432794
H          -1.79050724628273    1.87215421641797    1.51107985681796
O           1.74934307315852   -2.44719220434603   -0.75639535949749
H           0.84556657641004   -2.31911155430936   -1.10494740107627
H           2.24837959277659   -1.68169928290389   -1.05231452439823
O           0.76345582792260   -2.07835532503047    1.65054486479699
H           1.27636479200866   -2.27403730278332    0.82201217659688
H          -0.21121021886920   -0.98191998431087    1.22355961800440
H           0.28157548274921   -2.88176129929081    1.86057679752487
