    19
        -40.92007395
S           0.76157480673786   -0.46326823055671    1.07458528951860
O           1.31220924332642    0.32620075815519   -0.04547168347180
O           0.55369413620660    0.35916448254373    2.24540655740068
O          -0.38385782789295   -1.22680903170554    0.65453624838915
O           1.89964421327149   -1.50420427195162    1.44157139069913
H           2.47035381928547   -1.01689788538840    2.02822533994088
O           0.98580991797287   -1.49097883981788   -2.00588056015017
H           1.27376697377663   -0.82812278005452   -1.35065998143108
H           1.06895802394180   -2.34187866150265   -1.57089990913567
O          -1.51193878262582   -0.65453198268565   -1.64701957210024
H          -1.39498871609687   -1.01581202754752   -0.73987906951703
H          -0.72119251059841   -1.00807245837765   -2.11722889227431
O          -1.45314458456938    1.80736023686048    1.42830830662212
H          -0.76237217511084    1.22998191290431    1.83867897432899
H          -1.42561497112285    2.64183325948854    1.90165048426884
O          -0.66041359802875    1.56718300038065   -0.98112278407515
H          -1.11290129651433    1.77319619930816   -0.09072290403626
H           0.24837664983394    1.18774945752592   -0.68715086193913
H          -1.14796333179126    0.65790685241868   -1.37692638304502
