    19
        -40.91889798
S          -0.55857126218577   -1.18109335238455    0.72970404559201
O          -0.87315642918416   -0.73536341061807   -0.64479537240489
O           0.44410255569791   -2.22622418444297    0.71599145269992
O          -0.24859055417615   -0.05768008928440    1.57303408599450
O          -1.88567558584790   -1.84573879952042    1.27236925104113
H          -1.80778837688579   -2.75067084294837    0.98560185435666
O          -2.11515140555125    1.64674646797856   -0.67890129982901
H          -1.81522068685844    0.71722632753731   -0.63472148373658
H          -2.54329531449764    1.75664760964387   -1.52913873433226
O           0.22130543189543    2.25315490836830    0.44996951662652
H          -0.68052502936923    2.37714842127399    0.08376159799801
H           0.09986845956618    1.53065814103807    1.11293205474533
O           2.60302079720012   -0.91499242762892    0.09765899625736
H           3.19998519973832   -1.52986939194153   -0.33417399391887
H           1.84962858692085   -1.45517043744923    0.44621098905737
O           1.12572283735022    0.68595206400931   -1.22205694657924
H           0.30374215091890    0.07640497723646   -1.15530526444184
H           0.82751436733464    1.50536424433140   -0.51654688668308
H           1.85308424783516    0.14749978473643   -0.75159387247581
