    19
        -40.92343662
S          -0.61436264191260   -0.57078104075482   -1.46391288594808
O          -1.56472404092337   -1.28636077119366   -0.61119684691768
O          -0.96012636201170    0.82776924507399   -1.60237727966778
O           0.75732702510937   -0.76523857791264   -1.02137140835108
O          -0.71632227481085   -1.23262005573470   -2.88988354700334
H          -1.63099785869007   -1.09779052011652   -3.11749297940956
O           1.26712632699763   -1.25873662214857    1.55154742024896
H           1.85789164347753   -0.51085507751196    1.69346904464532
H           1.19107131278552   -1.34161021102741    0.57820409823025
O           1.85571062708754    1.29610274865049    0.23999019063541
H           2.31927595980376    1.91311036199895   -0.32785109560244
H           1.52718674653031    0.57783751877667   -0.34485518825459
O          -0.72140455101639    1.78127473620470    0.82206623546743
H           0.25744304992589    1.82815853076995    0.80436612886207
H          -0.96384480419568    1.59842923940594   -0.11694342006006
O          -1.15902994362988   -0.50502371146589    1.71124092801274
H          -0.20502352260138   -0.86679261631478    1.83345711069482
H          -1.04231351440041    0.52905980100058    1.46529165495628
H          -1.45488317773718   -0.91593297779586    0.79625183946163
