    19
        -40.90976878
S           1.40482748488649    1.22653474932667   -0.59548248471538
O           0.43297426409341    1.16291826785931   -1.67159459449536
O           0.85932886260751    1.82236141181302    0.61040315184710
O           2.02176885434285   -0.07551840019115   -0.33567338465457
O           2.58261858497578    2.15574522705633   -1.08234733051514
H           2.15425750925550    2.99511621968546   -1.22165735010336
O          -0.42488923989732    0.13366358157356    2.07136546366255
H           0.01652207979258    0.86053306503556    1.55113320624441
H          -0.06631306001113    0.18039148537530    2.95950526486774
O          -2.63418768759758   -1.19426889905818    0.80275048209926
H          -2.24506301246543   -0.50338104754649    1.34739475981707
H          -2.50285488337547   -0.93314925018440   -0.11374200496472
O          -1.06637164659720   -0.92982821236163   -1.58944528251538
H          -0.99520769702260   -1.37569671324553   -2.43540491470214
H          -0.56038798443869   -0.07539426719130   -1.67812505319573
O           0.31292297041095   -1.67462410532726    0.42589376749269
H          -0.35080114426479   -1.57231996410663   -0.34594409852114
H           1.14245059791203   -1.07783597105732    0.10785657332215
H          -0.08159485405582   -1.12524716767974    1.19311382893218
