    19
        -40.92021793
S          -0.88160971502376    0.05123467391309   -0.58551388816118
O          -0.94189287698424    0.46550493494466    0.87300012830388
O           0.23374390386911    0.72352629246188   -1.22857908715648
O          -0.88466606170884   -1.37145627014398   -0.71564788642465
O          -2.19413790719451    0.61414609584728   -1.17405964581986
H          -2.03844043531706    1.58370052591057   -1.29553570913454
O           0.04887170075429   -3.01964921975142    1.18938244387858
H          -0.71851364547516   -3.45352168994048    1.56706651988807
H          -0.26030100763931   -2.57379333617872    0.37790629945281
O          -1.12966452310616    2.94712266311143   -1.62023359471859
H          -0.36400473948079    2.35106138441992   -1.51327411213040
H          -1.13813913192775    3.23107281374787   -2.53760243181778
O           2.47957371982713    0.07690411712277    0.09677296110919
H           3.02379581876885    0.86606527298969    0.12866646484713
H           1.73913159496607    0.27160658529832   -0.50894229705503
O           0.88131410187183   -0.67354359838754    2.08101014968115
H          -0.15946896440687   -0.00785633358993    1.47413948173712
H           0.67036548505745   -1.62438693321414    1.90873226442723
H           1.63404268315027   -0.45773796854678    1.48271193907345
