    19
        -40.92217274
S          -1.34436589879939    0.09737245074979    0.29974885678030
O          -0.53929155312087   -1.11110909003015    0.28337393914991
O          -1.94914481641827    0.42739671267589    1.55822557281120
O          -0.61554738536057    1.22094877934624   -0.30289316130614
O          -2.53822147162571   -0.20794588670029   -0.72035111828375
H          -3.29127458451468    0.24646681622162   -0.35428175162736
O           2.01725626289129   -0.63804450611278    0.94504776639767
H           1.23970047554260   -1.21751040266121    0.86040016537409
H           1.71883262569443    0.03916199677922    1.59167117493697
O           0.12332341941111   -1.39621212773473   -2.22906052763190
H          -0.21354089095758   -1.49436472163052   -1.30879590317516
H          -0.63419695751762   -1.15157008619760   -2.76413304547464
O           0.54149705987262    1.14467130086315    2.28084430056472
H           0.55281517520791    2.03415892983983    1.91946182481713
H          -0.38388590062456    0.84953536526088    2.21410761448028
O           1.55233677757034    0.48360292184669   -1.23754440599525
H           1.18225164881789   -0.27077349462742   -1.80655043391493
H           0.66227245258226    0.92708191838820   -0.88136634845259
H           1.91918358135035    0.01713311371412   -0.34790452944261
