    19
        -40.91940433
S          -0.83509479822831    0.01377474090997    0.66629070348671
O          -1.56018942412994    0.42380115188002   -0.54081072126009
O          -0.43552235347434   -1.37624477521274    0.59795542133869
O           0.31301483461631    0.89583615572190    0.90479780650537
O          -1.82905007048376    0.20575346195461    1.84712434977992
H          -1.25756037809253    0.14463013295768    2.64126349143430
O           0.22488236493382    0.36918462615686    3.48679957734738
H           0.56831574393856    0.57109173633607    2.59482269309976
H           0.32152228283413    1.16985946452872    4.00790244510780
O           0.38562363278872   -2.28042261593115   -1.67270484943333
H           0.15839586795153   -2.02304662888821   -0.73654850736768
H          -0.20786398942869   -2.99952827993447   -1.89964619463111
O           1.60273032142253    1.40644293830602   -1.29916965546849
H           1.21114489928806    1.21415639664755   -0.40731469135189
H           1.57480099119598    2.35989420602454   -1.40275076364951
O          -0.14393894989448    0.03253251166104   -2.51767966308014
H          -0.86237335848902    0.22797654872967   -1.74821172240564
H           0.65143996904124    0.59842407382882   -2.19454480786476
H           0.11972243423602   -0.95411582558726   -2.32757490163977
