    19
        -40.92071429
S           1.05278033845673   -1.01308296613807   -0.24660007559424
O           1.05647953752040   -2.17600712674352    0.61085560897324
O          -0.20936922919282   -0.89827382671043   -1.00379207678510
O           1.34691458528099    0.22477923585829    0.43793489311511
O           2.18108508287545   -1.24055467070022   -1.32905041042120
H           2.20949220591051   -2.18739017089056   -1.43356408507270
O          -0.40687737791651    2.17707472977502    0.30431361615670
H          -0.49369709066347    2.25200518928764   -0.66938102622761
H           0.42788884556155    1.66790069001537    0.42337450550872
O          -0.24600597662796   -0.92667498087507    2.50699781967720
H           0.41156798208089   -0.27262508544432    2.76148529570954
H           0.23388748148224   -1.55522775896140    1.91736396531092
O          -0.51613935692806    1.45337144398112   -2.25771422033169
H          -1.17967771583151    1.36519259055082   -2.94343721496630
H          -0.32303370537689    0.54993117176185   -1.93724382251697
O          -1.72336585831659    0.12423322776483    0.72753403414657
H          -1.27641331057336   -0.28482253043513    1.56078630040806
H          -1.27617346377019    1.12106111114493    0.61206510440170
H          -1.26934297396902   -0.38089026323908   -0.04192823149520
