    19
        -40.92135399
S          -0.97432728442016    0.99135716578740   -0.71134544867093
O           0.26498133703288    1.74698183458750   -0.89827913664418
O          -1.10758292660175   -0.07884284682983   -1.67537925294919
O          -1.12406202054948    0.54588694132221    0.66502168053010
O          -2.15601900334104    2.00430941764104   -0.97149961357249
H          -2.08349271164422    2.17872763966374   -1.90478785729262
O           0.84907299683439   -1.69675904839938   -1.02937707325789
H           0.36579251701400   -2.08579546019797   -0.26171168491710
H           0.14756362389021   -1.18357775166868   -1.49580202991568
O           1.07457168242852    0.58328489493708    2.13664844820690
H           1.17909665460101    1.44466018518036    2.54498133300378
H           0.17776206159966    0.57163176415337    1.73152298995188
O          -0.93237282519943   -2.12951732701444    0.87430714393079
H          -1.10770197433073   -1.16860605002178    0.90135951283241
H          -1.73484141497333   -2.53905743914286    0.54629652816395
O           2.11495095005469    0.24814316036955   -0.16951075986488
H           1.68264142988106   -0.68384845698100   -0.54301831185300
H           1.46574862883842    0.95706115721877   -0.56348033114272
H           1.89821828888500    0.29396022936745    0.82405384346379
