    19
        -40.91966069
S          -1.41756246311768   -0.95533385282130    0.09997260690274
O          -0.43279704651942   -1.94658250057827    0.56029055154218
O          -1.68585900951465    0.02544196292792    1.14022627457135
O          -1.03079319042693   -0.36222897427824   -1.15600986199916
O          -2.75351643698837   -1.75233275316118   -0.14078824393187
H          -2.95276472975665   -2.10253447296336    0.72206023198746
O           0.52547185764314    1.23622815451880    1.59141384386416
H          -0.38142543501120    0.83220676509022    1.46217696339564
H           0.59825800747937    1.44237218770744    2.52521807427826
O           1.56752194439984   -0.04669922639614   -1.90475828301394
H           1.32681461301323    0.90420428864048   -1.78315471697552
H           0.70813244453222   -0.46240172899717   -2.08367193729929
O           0.23186061272425    2.08809238593323   -1.11083327172895
H           0.37062959820078    2.20770240366215   -0.16426723601762
H          -0.49082320623025    1.44397956971017   -1.19082645693536
O           1.72788824239621   -0.75863853069482    0.48124389835231
H           1.43448349874321    0.07398756577531    0.97241411749980
H           0.86699168191587   -1.38195683946567    0.53589146581751
H           1.78748901647170   -0.48550639458689   -0.55659802029352
