    19
        -40.92025494
S           0.34782024828000    0.15308784356761    0.82722185099860
O          -0.26138187536435   -1.04366463238737    0.26782702080590
O           1.50901311067410    0.56639099929694    0.04161339734013
O          -0.64459691311441    1.22587710105721    0.94558724902024
O           0.82423426525849   -0.14638614296963    2.27669751391182
H           1.72692943388602   -0.52844786695885    2.18737108452391
O           3.24955901376591   -0.76740370858548    1.48328382897056
H           2.84040780961717   -0.29279144200155    0.73195952807586
H           3.95166054312918   -0.20285388718374    1.81521060671556
O          -2.73174445593770   -1.01700064992144   -0.51755150842654
H          -1.80722766981034   -1.19004160230743   -0.19707091345686
H          -3.29918473964488   -1.08430615485931    0.25281623688706
O           0.20841123889950    0.34084123209716   -2.22649513045774
H           0.82678726044188    0.50552676167712   -1.47668723316511
H           0.08647854437276   -0.61353947983103   -2.24219917754354
O          -1.89721477438847    1.28095721264553   -1.16889943282967
H          -1.40572922630569    1.40403637382600   -0.22049580462256
H          -1.10338510885447    1.00229169150665   -1.76697557655492
H          -2.42083671490810    0.40742633133520   -1.01321353018760
