    19
        -40.92218951
S           0.83352831626567    0.79331661885069    0.12445932264975
O           1.36658298089740   -0.56312343889346    0.04989176824466
O          -0.04122253356343    1.07463183149477   -1.00941675915329
O           0.15008425365228    1.02868551825622    1.39628552470949
O           2.02845892902302    1.78989778189477    0.07708000988520
H           2.43682227309408    1.58320556412460   -0.78926899158853
O          -0.20767093350577   -2.37046084411758    1.03845953322646
H           0.27553488469041   -2.79068793197773    1.75317988624149
H           0.43846125907288   -1.76001316293262    0.59105059666539
O          -2.49109753892964    0.29410832178898   -0.67541786041796
H          -1.56922232910707    0.58046359575806   -0.91699402856643
H          -3.03763904510678    1.08064837865270   -0.73536265876782
O           2.35121594639997    0.57676093490641   -2.23539757845765
H           2.32486298792579   -0.24030673657684   -1.72013029728102
H           1.42385780648279    0.80244557090212   -2.38739666610157
O          -1.78547296983966   -0.48767583335536    1.61841812111721
H          -1.26980704913827   -1.36823092375906    1.44396831031175
H          -0.99170253204936    0.21785055293241    1.65732481798960
H          -2.23557468623303   -0.24151580791724    0.71926694929005
