    19
        -40.91892660
S           0.24896789581788    0.02584351267837    1.41266577162217
O          -0.17630834029540    1.24887843506485    0.70618801994917
O          -0.87444469423236   -0.63659152200286    2.03970081127823
O           1.04263911805002   -0.81707954268989    0.55316100441379
O           1.20199797966539    0.52156654223940    2.57311753058206
H           0.60990805501409    0.84093361123123    3.24764056943889
O           0.89249721467066   -0.59210647014327   -2.18231807916281
H           1.02046135425934   -1.18373092193527   -1.42371984838901
H           1.51884741369728    0.14442917615167   -1.99992626862553
O           2.24057398550515    1.22064258783627   -0.75474259196148
H           1.65986548452147    1.92642929021452   -0.45567026883134
H           2.09631398136270    0.49789147440995   -0.12122133710025
O          -2.27940401631406   -1.44576756146271    0.00961883506443
H          -1.75604871532882   -1.25999560230820    0.83094046001221
H          -3.20299628882386   -1.43702753200058    0.27022415825194
O          -1.24642020764941    0.41982674688637   -1.37231025876996
H          -0.83551995326268    0.89441964294279   -0.52799754645417
H          -0.39448327228592   -0.01037731563359   -1.84762732755274
H          -1.76644698433932   -0.35818454148419   -0.95772364376847
