    19
        -40.91103788
S           0.76678357272077    1.30209762623760    0.22381390486559
O          -0.03227742351913    2.01353185681106    1.20116332850842
O           1.20345889336483   -0.00013603089019    0.77138386533190
O           0.12045275435810    1.14465712504847   -1.05404227223747
O           2.08378032551225    2.12380628945094   -0.00829290160671
H           2.47046350796506    2.19941275929847    0.85913547203186
O           2.13675735131554   -1.57407368287677   -1.36367638916758
H           1.30580738300766   -1.63253063855694   -1.84146427311406
H           1.97749633138274   -1.00079513909585   -0.60340438695562
O          -2.14343736447491    0.55169340508367    1.44077897386400
H          -1.40839729513266    1.21601596477342    1.33288051661458
H          -2.45893438207547    0.64673894116541    2.34247602350378
O          -0.86819905954391   -1.12550739265091   -1.77457837314172
H          -1.69363362502947   -0.97899255830697   -2.24079909085051
H          -0.45484473606582   -0.23015762380386   -1.64579212803616
O          -0.78715483296056   -1.45760350600337    0.73840120870703
H           0.14167990399352   -0.94687292194624    0.83373560178371
H          -1.45758619861229   -0.74421050523321    1.07136553438048
H          -0.90221508619376   -1.50707397850633   -0.28308463449148
