    19
        -40.92071440
S           0.45322201658885    1.24271395110506    0.66800390592972
O           1.20834074349942    0.51007576470386   -0.36792182756530
O          -0.07323210091378    2.48941064504789    0.16205672527036
O          -0.53971921651259    0.38519735869949    1.27276211377739
O           1.50879167849914    1.61164103659693    1.78441392838994
H           1.86169431937233    2.44926122880367    1.49793033260574
O          -2.16951523301498    1.31603039149458   -0.87856044683243
H          -1.45855206666787    1.92465625572644   -0.56688699784470
H          -2.61601335654278    1.02418932037128   -0.07826274253464
O           1.82780059812678   -2.00981045224652    0.31252844411265
H           2.53337379417203   -2.32659654504447   -0.25337354840172
H           1.74269237306126   -1.05046812003331    0.14317864816147
O          -0.83651424152501   -2.04811873871286    0.32591947640090
H          -0.85720835206457   -1.25775184398080    0.91336463107639
H           0.08862702979824   -2.36469441565437    0.39875879535165
O          -0.66135264289027   -0.57512227185745   -1.65571276066913
H          -1.37887134505681    0.14511328584459   -1.49065933165223
H           0.19227757166045   -0.12639289394519   -1.30326633666776
H          -0.82584156976415   -1.33933395680912   -0.88427303893942
