    19
        -40.91384640
S           0.88168200670804   -1.62857600287403   -0.57979915606695
O           0.61300462012929   -1.99071489837920    0.82179959399639
O          -0.11231120072229   -2.14081573834159   -1.48080356749315
O           1.08503778155191   -0.18817509195298   -0.70215810451400
O           2.26804641700973   -2.29528502522504   -0.94322829051335
H           2.06778371681634   -3.21933932804324   -1.06571937995207
O          -0.86762911140342    2.82435137779647   -0.29757346811219
H          -0.47763543922818    3.16970919314382   -1.10266760139750
H          -1.36218346980189    2.03047144444477   -0.54672867838988
O           0.84854561138453    1.52896534594287    1.32236072250461
H           0.30373714491323    2.20707222499684    0.86558348463338
H           1.23771986345040    0.98957071301751    0.60204189257463
O          -1.51896691117671    0.12678491977843   -0.73662131287846
H          -0.54754153630547    0.06840285735926   -0.89123337516181
H          -1.86654966602159   -0.63689562148557   -1.20843308735763
O          -0.83472764355491   -0.24520694583233    1.76629041778790
H          -1.37877734981444   -0.08471965094473    0.94403907265135
H          -0.21705612556222   -1.08204496028523    1.47704246160692
H          -0.12217870837378    0.56644519686186    1.75580836609027
