    19
        -40.91907728
S           0.47200836610079    0.74714642235921    1.41377104324018
O           0.28122940288399    2.17681400974403    1.34007747970658
O          -0.80045768959627    0.01778092640119    1.22752609324820
O           1.49116182350336    0.23539323769701    0.52663791876940
O           0.93115923915645    0.41162364324271    2.89109871263317
H           0.47043761171651    1.03717647404554    3.44416574905547
O           0.51094045866617   -2.20704586646967    0.32774313895077
H           1.15285062038935   -1.47060588705444    0.35972852901846
H          -0.19670452440907   -1.89767400812341    0.90833741974032
O           0.46688081489055    2.05327994422034   -1.27240409151273
H           0.38336356788612    2.39533591265873   -0.35417393067911
H           1.24162745308878    1.47783295508549   -1.22935225735737
O          -0.55155803658435   -1.77967238894571   -2.01373280708721
H          -1.17360824191103   -2.48266086563424   -2.20967356571179
H          -0.06298973088861   -2.04891486374895   -1.18200680387517
O          -1.44856574289123    0.41328661536921   -1.13521697416053
H          -1.30134785467679    0.24753815255610   -0.10384761404578
H          -0.73373675999818    1.13949913231845   -1.34672838957107
H          -1.13269076732554   -0.46613353570456   -1.59194967036133
