    19
        -40.91940439
S           0.70920151319153    0.76810574031809    0.22080730770039
O          -0.15508943786584    1.56569016258019   -0.65537876101201
O           0.06380901172896    0.48408947202407    1.48547324451304
O           1.13863899249584   -0.46104968589747   -0.45581827941000
O           1.97684357830995    1.63328824756592    0.47317694170000
H           2.61502782005174    0.99847983879601    0.86160482599479
O          -2.45717755503658   -0.05585043083678    1.45087569775939
H          -2.87601917923609    0.61008577473532    2.00035294744534
H          -1.47520855304177    0.06523895800233    1.57478034129810
O           3.30811210425042   -0.56666397622993    1.03919434303171
H           2.53093685325946   -0.84290823090863    0.51575915945352
H           4.08341270555091   -0.76957994912989    0.51042669411065
O          -0.82490798862623   -1.58273943018082   -1.74665606995246
H          -0.03934732375818   -1.25929736327752   -1.23275208592092
H          -0.54698305833018   -1.61797631262568   -2.66436612268826
O          -2.27467779925799    0.36680219766580   -1.02538668901255
H          -1.41419938001315    0.99597772398420   -0.92733539761122
H          -1.84945057082567   -0.49558813169023   -1.38996517990883
H          -2.51292173284860    0.16389539512478   -0.03479291748623
