    19
        -40.92136336
S          -0.89620690067193    0.82631646219322    0.66166766904433
O          -0.48604914734231    1.64722853677070    1.77381516761286
O          -0.26029700004220    1.23987903861184   -0.60190197575325
O          -0.73490182421571   -0.59364708196194    0.87833457127315
O          -2.44828569268780    1.07799173835587    0.44217172209784
H          -2.58261352074551    1.97617279814311    0.73115533063698
O          -1.21561557763935   -0.65383089166478   -2.24755473200990
H          -2.12011577562595   -0.81968596636310   -1.97642567422985
H          -0.93318222216606    0.14858263242448   -1.76936561796206
O           1.76107250549405    0.28481543462276    1.96325043744990
H           1.43620319531426   -0.53836481859127    2.33858927163871
H           1.00403160513876    0.91122257355806    2.01921220412385
O           0.62950217535036   -1.99274622222886   -0.86771502783608
H           0.07069522178869   -1.74210135027708   -0.09691651981894
H           0.05684240610287   -1.75671454718872   -1.63067498470029
O           1.96172530967570    0.07553425298621   -0.57173860389326
H           1.52442012276852   -0.90798430955255   -0.76873927574759
H           1.14849211462699    0.68499058472712   -0.72064775489732
H           2.08428302492307    0.13234111540255    0.44348379293159
