    19
        -40.92343667
S           1.03902355471429    0.86328126724216   -1.01023891929389
O          -0.27267874889061    0.37838488191347   -1.40972541700144
O           0.97397294862378    1.79266561719922    0.09740780220682
O           1.96561601192019   -0.23816173338700   -0.74476784217068
O           1.61973109969333    1.63933967590015   -2.25220545797457
H           2.47664608766587    1.91651093791802   -1.94335410448683
O          -0.02161855323672    0.37324932602813    2.05650087519298
H          -0.94549940934468    0.40679667535307    1.73109999682304
H           0.44883430806698    1.03254972686237    1.49259806291195
O          -2.16458210854514    0.54349660745908    0.44538623033239
H          -1.52653641132531    0.60374981077229   -0.29959872905241
H          -2.66479922523060    1.36065196202883    0.43671477975789
O          -1.12258761317728   -2.00505155834670   -0.56250794533898
H          -0.82992476029113   -1.26085472361679   -1.12879228901382
H          -1.92473064413079   -1.69073300848058   -0.13098764944797
O           0.88478514798023   -1.67664194798511    0.96738075231335
H           0.07704420374077   -1.99422045972480    0.41691427371947
H           1.46820131955894   -1.16883193159270    0.26368156004220
H           0.51910279219087   -0.87618113552299    1.57449402048193
