    19
        -40.91990190
S          -1.18135809882156   -0.14198205344576   -0.93443388146513
O          -0.76070425373375   -1.14522336504200    0.03121668097721
O          -0.50970116265486    1.14429661636527   -0.63929351230387
O          -1.01216224919521   -0.54413612246876   -2.29975378283204
O          -2.71574830296433    0.11614731394664   -0.67431277897415
H          -2.81809227116982    0.09742796346640    0.27489345127671
O           1.37587268351356   -1.53326690197770   -1.80062481956569
H           0.53116507338523   -1.21114222161179   -2.19130266047245
H           1.12348714195342   -2.27479920454775   -1.24234092057192
O          -0.76002791522016    1.57582569350463    1.95560943118285
H          -0.73928070974395    1.51693421149646    0.97641519811058
H          -0.68470084215338    2.50607941296753    2.17413048586768
O           0.99442200886760   -0.47399862294869    1.84589787199704
H           0.30774108008671   -0.95562593809674    1.32786404143190
H           0.49668907529754    0.27635702867332    2.22631408707818
O           1.86634048002779    0.44998778234881   -0.29109831269164
H           0.96257519112075    0.90161959004168   -0.50902111731534
H           1.66517255961834    0.05828180663761    0.69588352876449
H           1.85831053180590   -0.36278296934575   -0.92604298050808
