    19
        -40.91966069
S           1.37087920187264    0.93195119169396   -0.42912693743887
O           0.43046354848186    1.35991421563480   -1.45313108266244
O           1.05438327327934    1.55932803129160    0.86341838703949
O           1.47560658408485   -0.50157503631402   -0.31518776721999
O           2.78695230983923    1.48197221306283   -0.84179859659439
H           2.64026217327292    2.42036377047954   -0.91022330133353
O           0.07004218055997   -1.94944390756072    1.51227946853107
H          -0.37527334916186   -2.26865553313581    0.68981165612767
H           0.93958553178437   -1.66434200244937    1.18677451239805
O          -0.71110547686780   -2.03078707303296   -1.00904469329991
H           0.14635541190040   -1.58379046123557   -1.10115149671442
H          -1.37707887158493   -1.34838837711139   -1.15148328681266
O          -1.88076969508216    0.54929569505170   -0.70437878361716
H          -2.54556929322503    1.19666393620208   -0.94695837818789
H          -1.01457106764066    0.88063969733488   -1.08184948949075
O          -0.92387161273502    0.33308637974444    1.68156449393131
H          -0.55247871545908   -0.67426862775138    1.72681760310432
H          -0.06441165052602    0.91637016033328    1.45067669160195
H          -1.46940048275696    0.39166575774593    0.83299099061066
