    19
        -40.91359074
S           1.61754991448092    0.42587684871386    1.05792119728287
O           0.52185880047689    1.44377655384492    1.29630649773666
O           1.59900829523799   -0.60402204201824    2.04885049272573
O           1.60490598713414   -0.03720363649146   -0.30454377945102
O           2.91840488185414    1.28618703212517    1.24533831732259
H           3.01895650513275    1.42798554311838    2.18441459272557
O          -0.12449232270130   -0.43168016782974   -2.40930401062816
H           0.61793408514202   -0.13520409757460   -1.86055589778577
H          -0.29503134903090   -1.33943766520720   -2.14267352820383
O          -2.19811141448371    1.02171949940743   -1.53624165864143
H          -1.43450605654108    0.58227477943823   -1.97438475761432
H          -2.98466611750682    0.74765909808915   -2.01020078023419
O          -0.20663891431205   -1.94003066087675    0.33579355451136
H           0.07775062094885   -2.29614253583752    1.18227014820269
H           0.54821436546078   -1.41137175956717    0.02565275071272
O          -1.60805817698925    0.27353722854457    0.91591889172651
H          -0.46627445240372    0.98120146507850    1.17384309714915
H          -1.93245309822264    0.63774392677709    0.05040091495449
H          -1.27435154377479   -0.63286940971291    0.72119396745268
