    19
        -40.92174065
S           0.47704686900232    0.49173728654109    0.57692066489262
O          -0.78583508571340    0.70843825651556    1.25063549972798
O           0.76277958234680   -0.99473583877620    0.46773005575602
O           0.58412340774186    1.12165185333646   -0.70627709539644
O           1.61452381254352    1.01013499561603    1.48335931355522
H           1.35253580460947    0.76924211230525    2.40942853465857
O           0.92065052064389   -0.28151269433855   -2.97848804054836
H           1.85837154353420   -0.39781279804689   -3.14003063412983
H           0.84320868245950    0.36587753550366   -2.25218300583896
O          -2.18627334231278    0.14272653953113   -0.99596190160056
H          -1.89728605107644    0.38726681512617   -0.10134908243242
H          -1.86703395407577    0.84053132112368   -1.57428870506627
O           0.30319288225429    0.43514063030166    3.64864161429791
H           0.09767259222649    1.15952492782095    4.24506998746062
H          -0.39867711217629    0.41688492104509    2.97192752356695
O          -0.53254203361019   -1.88825645273278   -1.43687357910326
H          -0.02130716184068   -1.49542392070982   -2.18184431467077
H           0.20801369974895   -1.47258150595635   -0.33665626193142
H          -1.33316465630549   -1.31883400420619   -1.34976057319836
