    19
        -40.91677565
S           1.24247133742332    0.22191546574216    0.80717335162162
O           1.50799650230319    0.14487660223366   -0.62090143040532
O          -0.00001957456026    0.98124229552486    1.04132104640817
O           1.23304157831609   -1.04985974815297    1.47758270574847
O           2.40066553586465    1.07967235202151    1.44262849641251
H           2.50394107035502    1.82195666421598    0.85444024610307
O          -0.89495718351033   -2.50401502111518    1.16165375439864
H          -0.00533699858845   -2.08698838727921    1.28985534406077
H          -1.18783574382715   -2.78679690004414    2.03050948817358
O          -0.66021953813043   -0.34880832972175   -2.13221377417771
H           0.24209478609451   -0.44488763363273   -1.76485260139295
H          -0.70435429512650    0.59011496957922   -2.38490140449162
O           0.03328940766655    2.23526990749197   -1.50694573438554
H           0.72519311412539    1.60023574081503   -1.25234472623513
H          -0.40595173311156    2.47159027424936   -0.68540388450775
O          -1.82115304872379   -0.40757858202092    0.08953524930491
H          -1.13977671624805    0.24758832848495    0.55515925532333
H          -1.46821127028064   -0.44131489136809   -0.90584840861592
H          -1.60087723006553   -1.32421310701623    0.50355304666272
