    19
        -40.92315429
S          -0.39579177863058   -1.65099897796313    0.01614602152194
O          -1.62825770238196   -1.18208220908870   -0.62257922125754
O           0.77074244738762   -1.09565705505583   -0.67275685822800
O          -0.34959995675771   -1.41050241311298    1.43334060344436
O          -0.37247790377315   -3.20858170236996   -0.21526507180235
H          -0.74427928212885   -3.29423270068014   -1.08756824438019
O           1.95708813753464    0.81029326814899    0.74774381588432
H           2.60685158792636    0.48708464776462    1.37343427805259
H           1.61759667032080    0.01821936131418    0.27479721624203
O           0.57505129436712    1.29928332365912   -1.79919654305944
H           1.27473869569550    1.74271882753034   -1.30792972747965
H           0.69863486533241    0.34307724324373   -1.61017990547122
O          -1.60177158575763    1.30075085539726   -0.48675613322996
H          -1.76733235743035    0.27423070359570   -0.58550779447312
H          -0.79566284440283    1.46317038305294   -1.10496003322881
O          -0.49999010153800    1.19013240629846    1.74612722955241
H           0.44707255484848    1.31519264989304    1.52137004234533
H          -1.21779508513990    1.38115393035641    0.50812839483152
H          -0.57481766547639    0.21674746795939    1.87161194090255
