    19
        -40.91965984
S          -1.40716315880559    0.08010758040115   -0.97226427809370
O          -1.77955258755551    0.98050201723330    0.10768756631756
O          -0.45230380977181    0.72826953649198   -1.88485823929103
O          -0.92041630093932   -1.19521401939161   -0.50791744796840
O          -2.70414172030680   -0.18644641915715   -1.82358241368399
H          -2.96019785009289    0.68727122724114   -2.10272533543624
O           1.72786633366129   -1.74735689891608   -0.21000487173123
H           0.89311401394899   -1.95244574343917   -0.66236177725955
H           1.46441331465683   -1.75042402045369    0.74251843156532
O           0.29621971556636   -1.30525472211471    1.96448549632866
H           0.34930285710710   -0.36891034328155    2.18787609366223
H          -0.40698277394377   -1.37698510397621    1.29833482490355
O           0.36532077086080    1.48896512638937    1.41157939202778
H           0.35295915054879    2.39857906780829    1.71520279824061
H          -0.52080515412399    1.32581821675398    0.97488473223064
O           1.68917422605700    0.70656716650854   -0.65990327369032
H           1.34132465235361    1.07815701936880    0.21294978868608
H           1.83558169134789   -0.34559201306076   -0.49748961720748
H           0.83628661940241    0.75439235569524   -1.29441186964378
