    19
        -40.91889767
S          -1.11328126476315   -0.74987805295018    0.66656446349202
O          -0.54982391308436   -1.47581851808697    1.78592095828350
O          -0.80522405688922    0.69337392865430    0.76814898136942
O          -0.75220690937766   -1.26073819857792   -0.62855586378340
O          -2.68339225475710   -0.85580002332428    0.80972507225127
H          -2.81576307696869   -0.87243078299119    1.75284217005714
O          -1.13151170867643    1.97342612720795   -1.57121866522550
H          -1.17532993740501    2.91467762732978   -1.39650139582892
H          -1.17953215749776    1.52539218255926   -0.70347397376182
O           1.99121288662262   -1.46157658368616    1.23652074911778
H           1.03449574063815   -1.60596045890646    1.44886045217841
H           2.46587470994939   -1.52782388726530    2.06797488928239
O           0.76928837299697    0.20362564581465   -2.16737702504766
H           0.12475970856394    0.93440692789870   -2.28511532534317
H           0.21551829895509   -0.53233901454384   -1.81056304037513
O           1.61559640492822    0.77336972717671    0.07557991361329
H           1.93812138914994   -0.09869101238125    0.49580695913388
H           1.38416845902246    0.54523534623417   -0.99700558027434
H           0.66702930946797    0.87754902054120    0.45186627165668
