    19
        -40.91898028
S           0.88667680810783    0.24167304003274   -1.34811654394831
O           1.53323030847032    0.09242573470984   -0.03236574581553
O           1.01660587410444   -0.94040945545400   -2.15927157226079
O          -0.48152903408111    0.70482230703642   -1.18301818791496
O           1.66830364514409    1.40967456785398   -2.07682885594050
H           2.38744278408737    0.98320112517880   -2.53535033229151
O          -0.11827338964875    2.11399588526575    1.02468558431992
H           0.82873838806660    1.96476838803115    1.10499647288474
H          -0.34805388276214    1.75964923262242    0.14067998959633
O          -1.29413376581378    0.22507717181892    2.38838694399358
H          -2.21444770495263    0.23291345149254    2.11729767739654
H          -0.87485379143570    1.03919207798370    1.98755952566084
O          -1.17607568105684   -1.84608052629710   -0.94416158646656
H          -1.35757208846991   -0.89943658640921   -1.09058610175964
H          -0.45230305147713   -2.01501410668362   -1.57183329697234
O           0.11345239003968   -1.51149321973841    1.21379869047441
H           0.82716339078718   -0.87583285345660    0.76132329437281
H          -0.47560127604865   -0.87211399276056    1.79146918103185
H          -0.46876989305407   -1.80701223119701    0.41133485366158
