    19
        -40.91889808
S           0.81457917898988   -0.69663959558139   -1.04399011735098
O           1.49978814395014    0.31350041240045   -1.82341431288419
O           1.12168710892838   -0.54974754081869    0.39498087476731
O          -0.60612669033477   -0.76530904935658   -1.25951221259305
O           1.43860461165068   -2.08519216292404   -1.46878362723489
H           2.33433042246984   -1.85875485542056   -1.70034126473370
O          -2.19719780944609   -0.09107501094996    0.69799202534233
H          -1.93600798513450   -0.81946981602340    1.30141160890835
H          -1.84566106901157   -0.38474880082310   -0.17768949529025
O           0.16199503996417    2.46403707908123   -1.23238599861436
H           0.63999973339907    1.67339846859782   -1.58898317676550
H           0.75315758140913    3.21149431931598   -1.34519630409532
O          -0.63970988856628   -1.85610799140231    1.94614911762411
H           0.07541471266334   -1.52974978960750    1.36473735492602
H          -0.25434211748853   -1.97335178857528    2.81566623550784
O          -0.29239679479437    1.43039200561451    1.05086243048191
H          -0.20351447434339    1.98543179585242    0.19997767836476
H          -1.25258344744410    0.85535630213982    0.95863687204123
H           0.38798374312278    0.67653601841849    0.90988229157883
