    19
        -40.92135407
S          -1.16890067272986   -0.60716846113100   -0.83678648970111
O          -1.88416673094748    0.54457620928451   -0.28548976221183
O          -0.34228598967536   -0.24251819208546   -1.96620308443200
O          -0.44270760026203   -1.32776882248597    0.19698822610294
O          -2.27250699770560   -1.60300869430577   -1.36640911722828
H          -2.64684763016634   -1.13170696564505   -2.10427548183703
O          -0.05224135700051   -0.01889423117093    2.46233870211167
H          -0.17242940010263   -0.64006396484222    1.70841305358955
H          -0.79950580101872   -0.15237253512011    3.04835428930836
O           1.47389750252028    1.30590196245764   -0.88439486163224
H           1.99605000333665    0.55323433196685   -0.51705262123882
H           0.83717849737630    0.85894532288799   -1.49073078413195
O           2.22082749130621   -1.11135604149492   -0.11883045877465
H           1.28137144023400   -1.33014697421087    0.03669342278341
H           2.50527317087090   -1.65870225810922   -0.85280162204813
O          -0.17215909574149    1.95316727230168    0.84710914614627
H          -0.01269190156620    1.31568567269591    1.62461962351158
H           0.63326469590278    1.78214941397154    0.12953786233567
H          -0.98141962309783    1.51004697462662    0.36891998777900
