    19
        -40.92021790
S          -0.08055421372794   -0.67479400499531    0.81111332971867
O           0.42519987206416   -1.18879512050579   -0.52417674470964
O           0.65811662679863    0.52171706276199    1.17462963559359
O          -1.50135430690231   -0.52615759694496    0.79911026543452
O           0.30060099501265   -1.80049253902437    1.79759242620475
H           1.26957538488918   -1.69170567460152    1.96644367528607
O           0.34207625942446    2.33054086588807   -0.78698212686757
H           1.18411821340684    2.77697129563447   -0.89501784804714
H           0.41622191508896    1.78453792105829    0.01886372740694
O           2.69196006810420   -0.83948950574400    2.15732095120430
H           2.18923340028617   -0.09316972857785    1.77894422724969
H           2.90380763053918   -0.60441061578194    3.06406505767968
O          -2.90863203652797   -0.06075184775713   -1.44147281650332
H          -2.55462483698662   -0.15391422203789   -0.53655655638154
H          -3.39024408645473   -0.86920482525993   -1.62643940245242
O          -0.43257865427624    0.29009930558287   -2.30165111621102
H          -1.40975588982914    0.21421231088416   -2.16897152804387
H          -0.18164440031184    1.16443991424460   -1.92294567680636
H           0.07847805940178   -0.57963299481536   -1.36386947976587
