    19
        -40.91041376
S           1.56438443229725   -0.60038478049475    0.36409872828674
O           1.15816595928182   -1.76297945039725   -0.54045681429903
O           1.98775939577384    0.52532170654980   -0.41537775807656
O           0.57873371057698   -0.35579044884974    1.36463540260870
O           2.83667970802502   -1.19553604432987    1.06699504967246
H           3.52920196633047   -1.16506904290608    0.41118872377093
O          -2.20897187607971   -0.70432520135918    0.89799226477733
H          -1.49059889035494   -0.98480936521967    1.47628280828827
H          -2.15146646928146    0.28132275293423    0.92822663143124
O          -1.31040942235668    1.78229916700374    1.07249944446148
H          -0.55065932676899    1.34232439587081    1.47234469369329
H          -1.01208639943449    2.03782924963746    0.17997936619927
O           0.03469343767041    2.21061038376649   -1.26581107228190
H           0.76410459750892    1.60563722886603   -1.04419984226986
H           0.43616826232716    3.05688489209441   -1.47068000942340
O          -1.14609476142846   -1.32392849041478   -1.36096031186618
H          -1.57891297805521   -2.11794593032748   -1.68372313828599
H          -1.64154405794931   -1.04605969938500   -0.52179819146708
H           0.20085270191423   -1.58540134303371   -0.93123597522509
