    19
        -40.92071435
S           1.35118393527080    0.60759235659393   -0.00491994646100
O           0.59190325782773    0.23288148539906    1.20469610731250
O           2.46945105577432   -0.27964836905276   -0.22799496610709
O           0.46598750884007    0.73726437914406   -1.13919140965739
O           1.95425092551826    2.03675498130315    0.29594930637973
H           2.78570929192410    1.84890047335437    0.72211436118633
O           0.96814428262014   -2.05716253819102   -1.42840102662186
H           0.72083081906212   -1.56536957667886   -2.21699422768601
H           1.68089690367739   -1.52157201659870   -1.00642898940263
O          -2.07572932270658    0.15368948352333   -0.81660795297324
H          -2.28263471944612    0.73958644636630   -0.05833105063339
H          -1.23099861351785    0.51914119947304   -1.16750344918058
O          -1.75343970271467    1.51047266294210    1.45400525624362
H          -2.05161037123973    1.45602098669380    2.36303934323618
H          -0.83455171011350    1.17623491680758    1.44014394997751
O          -0.82519177579985   -1.65172601163192    0.32502189288075
H          -0.25124481590315   -0.98348970581753    0.85204759146378
H          -1.51094406253395   -0.96892151071864   -0.19495152478441
H          -0.17201286653419   -1.99064964290704   -0.39569326515467
