    19
        -40.91039606
S           1.01272868616906   -0.45745315198285   -1.58211208580048
O           1.36450807483383    0.94768430637912   -1.61507821386626
O           1.61357470772567   -1.11843893519834   -0.40342119154129
O          -0.39994629281396   -0.72578279324399   -1.67132587362393
O           1.69615688531107   -1.13456493194333   -2.83039866860690
H           2.59281713900607   -0.81440090514390   -2.79480182033412
O           0.39544945602910    1.92265561975724    0.57340668496771
H           0.73621471493815    1.63831856916022   -0.31523173762875
H           0.97325688785565    2.62600259986144    0.87579152265782
O          -2.11307921314547    1.18457324987439    1.74663088101432
H          -1.58018521617766    1.72751172751992    1.15780025880495
H          -2.43369321289296    0.44243195483222    1.22565871168877
O          -1.73904202774488   -1.34936705166126    0.46020417195033
H          -1.92384166088495   -2.28990949800023    0.43994618433733
H          -1.33976768315024   -1.12217384276555   -0.41871213071132
O           0.37514768111249   -0.43672499847477    1.59569983238421
H           0.31886037694269    0.56070161152932    1.41376461489250
H          -0.54651381335774   -0.80374644041482    1.36929410870732
H           0.99735448015554   -0.79731711006541    0.77288475072831
