    19
        -40.92136406
S          -0.68092875170946   -1.18408819986253    0.23523723533391
O          -0.70350551384498   -2.25059917191816   -0.73474162138956
O           0.66835597644040   -0.95310633117761    0.78092986375418
O          -1.26746614686233    0.05356372983567   -0.22723048088709
O          -1.54961758517758   -1.66246749306472    1.47523073911452
H          -1.46479381579491   -2.61167541919193    1.46805435758500
O           0.14013417378650    2.25764318534066   -0.06494858208946
H          -0.59912681274462    1.62522601682533   -0.21614362865973
H           0.27119672557128    2.20254059268881    0.90744464313246
O           0.22790668175441   -0.60556837259379   -2.57121626212653
H          -0.55320746376219   -0.07064771603629   -2.73824706723797
H          -0.08625647637474   -1.35540668165621   -2.01671280157299
O           0.17281590770533    1.15864615616873    2.36248276034686
H           0.42299128960348    0.31814151710865    1.93460382298085
H          -0.69122854947111    1.01134909664002    2.75094379181274
O           1.75180967715732    0.56793435367530   -0.89383897868674
H           1.50961341660628   -0.10342854664028   -0.15508448026982
H           1.27464001069785    0.16699761921130   -1.70616502675417
H           1.15666724662459    1.43494564449118   -0.59059827402958
