    19
        -40.92135403
S           0.48592868910799    1.43771002859555    0.36416337497763
O           1.63967666729127    0.74462749921462    0.89360021829766
O           0.54141890476566    1.56203821991225   -1.09305533372387
O          -0.77771681872203    0.86649641692867    0.80231254289597
O           0.51956614585962    2.90788083829763    0.93661727802892
H           1.39906935745024    3.20016175036537    0.71804591133267
O           1.35725979532898   -1.67764449689596   -0.06564445951491
H           1.70200533582010   -0.82496860232862    0.29049436763005
H           0.67414941825741   -1.93543851796865    0.59837394919401
O          -2.19217870180274   -0.37364387996226   -1.05772126270005
H          -2.75910175926332    0.25486149151927   -1.50855245872160
H          -1.80723984578898    0.09960214370504   -0.28539355296605
O          -0.45123210014973   -1.58630582488595    1.86020081094281
H          -0.67095336348885   -0.67555603415461    1.58296026057020
H          -0.05932613940205   -1.51354032188884    2.73220695818724
O           0.15188062554246   -0.72143400344325   -2.00467668184756
H           0.69365752297894   -1.26635148894459   -1.22881206673310
H          -0.83487527193343   -0.76332122208391   -1.75780679301106
H           0.38801154797968    0.26482599357123   -1.77731306293149
