    19
        -40.91041374
S          -0.59876587489092   -0.78512234963390    1.40197989952137
O           0.83368324477876   -1.30029741414314    1.53411925823566
O          -0.70366880774073    0.55571551378383    1.89720338127427
O          -1.11788274858675   -1.03132716682324    0.09728345278605
O          -1.35098070763985   -1.72356296245037    2.41213834587451
H          -1.12167717117426   -1.40118051563010    3.28051982523709
O           0.49768846661130   -0.94357614921995   -2.24562598278302
H          -0.02870737537817   -0.11522929544312   -2.35707338106489
H          -0.09642132012146   -1.51684355593893   -1.74807881801464
O          -0.10132030310858    2.54037967667293    0.14349681834109
H          -0.26343068347906    1.86893449074410    0.82905819630605
H          -0.50853562675959    3.35063170342807    0.45497599829080
O          -1.20015510450741    1.05556374756071   -1.86862816935847
H          -0.74241704643915    1.71324038735093   -1.31293638339240
H          -1.59334793920931    0.43331467788994   -1.24498162211886
O           2.15464117790990   -0.38213179185337   -0.35998480994677
H           1.42379000625538   -0.89747480219294    0.76586050068159
H           2.96246507678629   -0.87630561437513   -0.51873162837193
H           1.55504274668190   -0.54472856970418   -1.16059488151349
