    19
        -40.92135409
S           0.37300759487205   -0.31678812324971   -1.48207443306921
O          -1.00860883508586   -0.73396150150793   -1.57664058811252
O           0.51168456145746    1.13913033042178   -1.53870144045055
O           1.06299016921562   -0.87314917555187   -0.32902723706719
O           1.12099891585445   -0.88326806329143   -2.75085884263775
H           0.57613086137792   -0.58030473450610   -3.47061600064409
O          -2.05241653229022    0.19440517645881    0.64058966948803
H          -1.68438519960818   -0.53144772591715    1.19888033775814
H          -1.88933606691171   -0.12742927236821   -0.27729695994888
O           1.68437247637158    0.84439149444736    1.58481156524063
H           1.57004761332257    0.11212055544072    0.93723878179831
H           2.53904009712202    1.23946358288600    1.40289461943191
O          -0.65962117288733   -1.89428854998094    1.46809622889214
H          -1.01098079137827   -2.72558855985135    1.14449991435981
H           0.05207402201682   -1.63937603874352    0.84904269431106
O          -0.37046718458731    2.01025352652860    0.62011980095742
H          -0.03248130603235    1.80613561922776   -0.34119324259021
H          -1.18341901315204    1.28906454271538    0.72974753518844
H           0.40136979036951    1.67063692684521    1.19048757711833
