    19
        -40.92218944
S           0.51757940648632   -0.43829402715279    0.93833223274170
O           1.65459759440413    0.32945239788204    0.43077382359043
O          -0.60354251870418    0.43234805016200    1.27727352214425
O           0.10928839726489   -1.47245636217640   -0.00727404970392
O           1.00509192044594   -1.13500089122026    2.24208703495729
H           0.20663300882679   -1.62695135431872    2.52587594491238
O          -0.98580468467202    2.36732144525537   -0.40525703521476
H          -0.95171814930980    1.63140583936053    0.26378619085502
H          -0.89580161130095    3.18291776030138    0.09241934104246
O           0.18028457722632   -0.72134713164996   -2.48781792915301
H           0.79984876318879   -1.30479588733188   -2.93120857583073
H           0.07099759775170   -1.08391840909987   -1.56758701665732
O          -1.47548749956732   -2.00898620786794    2.15496106078118
H          -1.71716929402886   -1.07668531137811    2.07656464871221
H          -1.25668778884623   -2.28358773353715    1.25453666815987
O           1.03199033681623    1.50224663527932   -1.65076875607010
H           0.68399157527641    0.66952360122438   -2.15791006020963
H           0.19110119684993    1.97602380220535   -1.27666869814656
H           1.43480716189824    1.06078377393194   -0.77211832681219
