    19
        -40.91990207
S           1.15713147984611    0.96466661435365    0.11786802757778
O           0.03651520751768    0.89599772189607    1.08346298516438
O           1.13837172127709   -0.21220203567661   -0.73660815696306
O           1.18012590111686    2.20365503013355   -0.60246440874209
O           2.46828315225242    0.86631096916165    0.98934337285146
H           2.55173713293040   -0.05761722391620    1.21600048873554
O           0.07806099661007   -1.53138615332577    2.12572806252917
H          -0.34193770642664   -1.56072760520885    2.98686812572576
H           0.08880867994189   -0.58893838008967    1.85311412413545
O          -0.65544211832373    1.35185072557478   -2.28718421393537
H          -0.14709528275473    0.67484780983353   -2.74378137971399
H           0.00766204517424    1.85558179507137   -1.76135443292990
O          -0.76531721493709   -1.97047784967944   -0.40456811122980
H           0.06065657606666   -1.51567164616447   -0.69141936148748
H          -0.59830073447610   -2.15406802665890    0.54050761855696
O          -1.89346890974607    0.24589769408169   -0.36480645471820
H          -1.22969683416664    0.61437286856360    0.33718806634867
H          -1.56309315989346    0.70062693045363   -1.22989350950587
H          -1.57300095202486   -0.78271926836381   -0.42800084240099
