    19
        -40.92343666
S           0.85322112813475    1.13978708843578   -0.90423275685291
O           1.48627982139701   -0.03533778248630   -1.50480151841103
O          -0.47236332915720    1.37058372072434   -1.43763628038224
O           0.86668647250294    1.07465137138806    0.54853890134576
O           1.74914632026982    2.37397012799372   -1.29910469682660
H           1.72095361534018    2.35723595105734   -2.25065994863095
O           0.88089641867429   -1.29712581210909    1.77163716051750
H           1.13109690586897   -0.40510093882191    1.45256618940696
H           0.07654472931164   -1.16269511929076    2.28492663906493
O          -1.45603247358663    0.47101630664034    1.68388645485831
H          -0.62677751507047    0.83458340989699    1.30196881229911
H          -2.00425908349779    1.22594206907366    1.90192048150809
O           0.29970694978282   -2.02012939008755   -0.59859558604666
H           0.56171089714389   -1.92077869454882    0.39021965560494
H           0.87890175851135   -1.29039910731348   -1.07362358470950
O          -1.83275563288221   -0.73399717622657   -0.68714410118902
H          -0.68463322530327   -1.60962044800262   -0.67538473564561
H          -1.95096172536793   -0.43788980444067    0.23968015178568
H          -1.47736203212324    0.06530422809659   -1.14416124773731
