    19
        -40.90997397
S          -0.12899895678312    1.47033228156024   -0.46097325342987
O          -1.20385365901735    1.85885206098389   -1.32420884264535
O          -0.66080100431724    0.95712006106060    0.86896081867368
O           0.82058316413480    0.55253750866820   -1.01573203667324
O           0.64702842967139    2.75838010836534   -0.02751817506068
H          -0.00359376032064    3.42709122047385    0.17554301536136
O           1.37161327941409   -1.72734638890514    0.25259696811611
H           1.31811633456139   -0.89134094758604   -0.25312678228089
H           2.18353044503143   -2.16340173181592   -0.01100896268270
O          -1.54371580499496   -0.71481259077734   -2.02953341993750
H          -1.65170764744695    0.24749044613837   -1.94117387929866
H          -0.70860157659302   -0.83997766044905   -2.48751741697212
O           1.50390629301798   -0.03153329875434    2.58276480377944
H           0.74679958446677    0.49573956047153    2.31479890190318
H           1.54887365611393   -0.76588913207654    1.95828896963529
O          -1.29197231200305   -1.39441601919349    0.50958325173498
H          -0.99802817310355   -0.08556748685458    0.78909641474231
H          -1.53332438783531   -1.33085236963177   -0.44809245936575
H          -0.41585389398380   -1.82240563162976    0.54725205441291
