    19
        -40.91317646
S          -0.88093268735045    1.27706950872252    1.29943631722378
O          -0.48624973783583    2.21450145788110    0.23044568793941
O          -2.23410385229882    0.81775793079256    1.14747217159802
O           0.09111068096592    0.19697460329309    1.41103943765110
O          -0.78866317377735    2.09744387633861    2.64666184848554
H          -1.56734675462790    2.64771775479099    2.64997924606776
O           1.18191560947896   -2.59741456196347   -0.98873661482952
H           1.22035312655849   -3.06529684538317   -1.82410415234012
H           0.25667988438295   -2.36088305299973   -0.83460883485124
O           2.16890157795107   -0.18322401654374   -0.24097677884478
H           2.06981845717740   -1.13513566556352   -0.44180524800551
H           1.66064462623702   -0.03665754266602    0.58230634582985
O          -1.14154046469608   -1.07846085968948   -0.51903958760906
H          -2.06226422851167   -0.83779688678294   -0.36652483720355
H          -0.69908407760440   -0.79100845106723    0.31320190317011
O           0.32304857203672    0.80152445002345   -1.59818251621866
H           1.22674743037431    0.44706028091695   -1.14371265181677
H          -0.31797220680549    0.04601240156088   -1.45255829039305
H          -0.02106277160575    1.53981563829180   -0.87029343592754
