    19
        -40.92136397
S           0.18914475788321   -1.34354943677296   -0.28958517320089
O           0.93313138559981   -1.76761280980764   -1.44960954046620
O           1.03569725232650   -0.64262058163436    0.69191888957354
O          -0.99481076926582   -0.57107031967488   -0.59167416009825
O          -0.30319821314795   -2.65681122674310    0.45448195140822
H           0.35805162913543   -3.30872197395994    0.24010367311329
O          -0.81565509216312    0.04565111669204    2.50937396023567
H          -1.43068331889356   -0.68764997549931    2.56555602325923
H          -0.05763563583104   -0.27712820251351    1.98634701451690
O          -1.29571647197154    1.77320916040584    0.53900650579598
H          -1.25315857872333    1.42993267408322    1.45898549686582
H          -1.45865833259628    0.95621186943167    0.01419127372161
O           0.80123052917314    0.67146192298341   -2.43684398484773
H          -0.12241530185390    0.70341794026533   -2.70137071001139
H           0.97313964879123   -0.27101463274806   -2.21132894555571
O           1.08870172320706    1.72715353497407   -0.13199259844924
H           1.24947073670851    0.81212631232313    0.30486003341055
H           1.04758065586417    1.48185404241457   -1.12557595141457
H           0.05578340575885    1.92516057579477    0.17315621214487
