    19
        -40.91990211
S          -0.98240437605294    0.53452261776166    1.01814825996540
O          -1.34449450802629   -0.00070723318729   -0.28496856058460
O           0.41992729018878    0.17544895471906    1.33072940875423
O          -1.22868675912828    1.93980191981411    1.15659218935227
O          -1.85937399447572   -0.23544939439211    2.07948194211855
H          -1.88796428075070   -1.14022685031548    1.77550898757583
O          -0.22681590766899    2.43572270885243   -1.22680229927427
H          -0.89961049806968    2.01458236336153   -1.77022139936316
H          -0.61314758837062    2.46353395182226   -0.32125453162191
O           0.69597870348347   -2.39864300021013    0.80283922368401
H           1.42129783667382   -2.78996673474242    1.29237815810014
H           0.61428554539567   -1.47315026315381    1.11832786584949
O           0.46663673879150   -1.29570001706704   -1.65203519641320
H          -0.38701535026809   -0.91712058009422   -1.33669768268182
H           0.67187916740168   -1.96982683450299   -0.97469422164682
O           1.61172661227861    0.73753015917441   -0.79332991113691
H           1.24911580351120   -0.14722730668234   -1.29622271069371
H           0.99193467243082    1.50698730558534   -1.08951183121421
H           1.28673089266673    0.55988822329119    0.17173230906801
