    19
        -40.92136355
S          -0.67971851817416    1.17611732230419   -0.28158172985797
O          -1.77593363809296    1.62951263433303    0.53793270768325
O           0.60210199350360    1.18509714225153    0.44563949527676
O          -0.90080857789930   -0.10275427522509   -0.91782258101793
O          -0.49814712212984    2.23765372111568   -1.44814187102864
H          -0.78809406309970    3.05987441804489   -1.06314242582078
O           0.87132293637571   -2.00471482935920   -0.58460894035288
H           0.08802763113894   -1.49614731404201   -0.89603151060328
H           1.62085334828572   -1.48703893852017   -0.95347664078863
O           2.21251417992993    0.13729628181811   -1.42934617356303
H           1.74555653613724    0.64988486513907   -0.74277861599530
H           1.92021449164652    0.49231145214564   -2.27050270787169
O          -1.91579412979491   -0.74209090422162    1.67719209579814
H          -2.30373364170792   -1.25646870623779    0.96381559144439
H          -1.98720327490728    0.19595658377515    1.38802361141540
O           0.62216090829010   -1.00505542110956    1.66901154264633
H           0.75394783288714   -0.04869881435393    1.31835926065222
H          -0.38927689958441   -1.03344906556859    1.82737952613374
H           0.80201001719791   -1.58728616230177    0.76007936584685
