    19
        -40.91893395
S          -0.21917786399827   -1.37799671377432    1.03320340965361
O           0.34135465986381   -1.55544116023850   -0.31514480545265
O           0.80760867471321   -1.29551478387841    2.04060045290070
O          -1.19237005142353   -0.30380228042162    1.05585776057909
O          -1.03447520022462   -2.70764834587234    1.32964178236047
H          -0.36939359941197   -3.29456298565194    1.67659584459934
O          -2.13198849808536    0.93804848026465   -1.01392064789549
H          -1.86460607478695    0.52179028469735   -0.15376374834106
H          -2.95178310461101    0.51447054059513   -1.27484007032921
O           1.06706055819776    1.26320083616557    1.44612799951413
H           0.13116568895261    1.45798544529507    1.55338413197603
H           1.15546476670424    0.33828139801833    1.75369109092932
O           1.82185706704908    1.66422940108689   -1.03383137042765
H           2.70851542674062    1.30447431805914   -1.10025068469720
H           1.56931314675433    1.60155536171970   -0.07358735196042
O           0.05387118665354    0.16701728769495   -2.04764536997844
H           0.17734703794602   -0.64192213408319   -1.35725861728545
H          -0.85043093856915    0.56687217407587   -1.77657492316530
H           0.78066710746697    0.83896285632019   -1.74228487277258
