    19
        -40.92343664
S           0.87938299344076    0.62733352883748    1.29579478935802
O           1.60479446246246   -0.64166445583664    1.21942349489816
O           1.30139367434924    1.55295775559404    0.26622541380847
O          -0.56065562781773    0.42402548256443    1.30722969386936
O           1.24685339905284    1.26225886348247    2.69002368175410
H           2.19320782104228    1.35150569142049    2.63584261871605
O           0.60627284002562    0.37583331904900   -1.96412049392391
H          -0.34531280021138    0.59886885650495   -1.89113997848521
H           1.02916764466103    0.92195591984006   -1.25913750648231
O          -1.81346228524099    0.98071400596531   -0.96613443452584
H          -1.40024782756329    0.90616218565991   -0.07761457909349
H          -2.12632263798081    1.88324266898592   -1.04140760679308
O          -1.60689503086440   -1.73051316023952    0.13062065758623
H          -2.18495453673513   -1.25654045300340   -0.47735855184105
H          -1.33519807471452   -1.06396502740007    0.79549687161248
O           0.76141121239519   -1.82049139753954   -0.79757152675637
H          -0.21080566833019   -1.96582460795154   -0.49779937324359
H           0.73854659017009   -0.95938390172465   -1.43134960242266
H           1.22282384195878   -1.44647528394702    0.06297640208132
