    19
        -40.91376541
S           1.06356456016586   -0.65477914640487    0.02865781306522
O           1.04857810700462   -0.51859853359992   -1.43478030993584
O           1.30878105988769    0.64152959226146    0.64573790800745
O          -0.12414752931565   -1.31694816491845    0.51159696487786
O           2.28523417805856   -1.57618586220179    0.37626761232796
H           3.06458788431497   -1.03324609250912    0.29464741250848
O          -0.53454535105009    2.27021439399398   -0.19208814875115
H           0.16238524376891    1.70439502420988    0.23127296929201
H          -0.13382854665913    3.13117801171011   -0.32972391943245
O          -2.40193678336228   -0.96511344825485   -0.71486501140771
H          -2.99120322948423   -0.59509966462785   -0.05324327894890
H          -1.59694990272251   -1.26883417114497   -0.22852006414421
O           0.96419923193629   -0.72552469269272    3.03054374978219
H           0.43693171775922   -1.30870408773427    2.47653554102833
H           1.19662644899824    0.01065550704415    2.45502297370728
O          -1.01958346208897    0.64985213971327   -2.08170207212107
H          -1.71172056411833    0.01056803337152   -1.65502151412006
H          -0.91831703769578    1.42448754471326   -1.41634496728248
H          -0.09865602541267    0.12015361711030   -1.94399364847075
