    19
        -40.91302007
S           0.83725112214039    1.11796333218267   -1.43388074976080
O           1.76538307633095    1.43063265925627   -2.46535839781900
O          -0.32410323583849    1.98243042308931   -1.33589083352519
O           0.44181419391781   -0.30259330867197   -1.36235992125534
O           1.63015570383128    1.31526705430229   -0.03635020295410
H           2.07710072576884    2.13644997640727   -0.20933819515135
O          -2.03511853839578    1.54585503708684    0.50378626855860
H          -2.85628567342384    1.94741025050821    0.21218628408553
H          -1.34097020265490    1.82496678325366   -0.16442082684164
O           1.86766677501043   -1.43745041770161    0.57721161106479
H           1.46707030605198   -1.11370437502599   -0.25625472523057
H           2.29331042488358   -0.66420336992098    0.95673025661899
O          -0.38097881448355   -2.08112751695113    1.74759483941802
H          -0.46172368489727   -3.03666500692793    1.73386598435659
H           0.53610300728756   -1.87234966667994    1.41475534578675
O          -1.61765193163217   -0.85867344807873   -0.09948958388241
H          -0.78756465570710   -0.64781665190062   -0.72037931340925
H          -1.20961772127190   -1.36973702401045    0.70194945016852
H          -1.90184086691935    0.08334526978430    0.23564273977027
