    19
        -40.92218954
S           1.15140546602007    0.11718921214620   -0.01193626515294
O           0.94653072615136    0.35872591308010    1.41616107119809
O           0.72585972221188   -1.22647569018605   -0.39070753399754
O           0.47996851630560    1.12684739369125   -0.82397257409518
O           2.68368577246452    0.23156492257178   -0.26125195911494
H           2.75110380069621    0.05986419995697   -1.22352423117738
O          -1.45966358532191   -2.00544260363159    0.76686017348534
H          -1.23610335989851   -2.79218714494722    1.26878812494014
H          -0.64907421573645   -1.77782450619218    0.23646562083937
O          -1.85745487836931    1.81441621597240    0.06217340981645
H          -0.99889377004409    1.57968196130431   -0.38281878270019
H          -1.81309211486038    2.75545093292406    0.24488301601287
O           1.86104236821906   -0.30675068417209   -2.70202143568142
H           1.25797462869817    0.43773351945179   -2.57671513286756
H           1.41202409667408   -1.05903052419681   -2.29404765670561
O          -1.45469449597199    0.21287089848623    1.97097774797291
H          -1.78423020746281    0.89195644353956    1.26256251322240
H          -1.61628456216834   -0.72358578796786    1.56043572802371
H          -0.40010390762273    0.30499534824618    1.87768817593907
