    19
        -40.91317634
S           0.52690813266578    1.25584290248415    1.49713230234652
O           1.20824329795951    1.90018375197715    0.35803899853468
O          -0.76953319042650    1.82332211625235    1.74700974920103
O           0.50441126128131   -0.19088925943033    1.32186976720267
O           1.43729451955299    1.53606465031339    2.75784495611921
H           1.26227404019683    2.44506641690040    2.98640529108047
O          -1.13900252975050   -2.48476334676822   -1.28551243774453
H          -1.61504687582887   -2.69757256959932   -2.08941531885807
H          -1.59701590544787   -1.74170713127787   -0.86868081630558
O          -1.64541883211948    0.04597008749162   -0.15913444348849
H          -2.09598523277563    0.79028610070246    0.25547547265233
H          -0.95892989059614   -0.19299012168848    0.50626177195774
O           1.35068657151815   -1.48962137667646   -0.86650919291541
H           1.27093270965687   -1.21476193480364    0.06927295177681
H           0.59447062906164   -2.08808747506137   -1.02756059255718
O           0.42092595214667    0.69682409318470   -1.62407992246262
H           0.91650771423765   -0.23834407041811   -1.45456518353317
H          -0.50921029494360    0.52548885778890   -1.29387484653382
H           0.83748795516375    1.31968833598468   -0.82997850179139
