    19
        -40.92343589
S          -1.12543057049981    1.17257837148491   -0.45150882112501
O          -0.46881590042388    1.08096060961971   -1.75653912064944
O          -2.02938690025801    0.06569624693266   -0.22301889486172
O          -0.16194343118211    1.33689559914840    0.62550074280823
O          -1.98261120391444    2.49406039201356   -0.48252115678058
H          -2.55817436209713    2.35242360152066   -1.22760948813414
O           1.15957822439013   -0.78822927615131   -1.59918362291568
H           0.51545653291699    0.00459037458820   -1.82210654508231
H           1.78955053667989   -0.38717096548070   -0.89312448405549
O           0.27705018711728   -0.82401048172442    2.10449549436317
H          -0.29196538329776   -0.90821841414290    2.87078873570066
H           0.02912961647683    0.02170815541528    1.66972902323585
O           2.30867258448600    0.36555645518472    0.35699741680496
H           1.54533073099461    0.97029348921525    0.46591639713083
H           2.29098588412047   -0.20237178773471    1.13527252922094
O          -0.46610543215746   -2.03068650284638   -0.17750818195596
H          -1.21709061198975   -1.39593961364497   -0.26299188989202
H           0.51738598824930   -1.45455765067257   -1.06284842611339
H          -0.13161647130210   -1.87357860353177    0.73026030314048
