    19
        -40.92135350
S          -0.59609674987103   -1.09961592632563    0.93453562700022
O          -1.70272510030785   -1.01520037578991   -0.01959425016570
O           0.49635049906323   -1.90085059814524    0.42811874239463
O          -0.17904522937510    0.21859561797187    1.38573417452432
O          -1.16609297840406   -1.83454227972947    2.20940369091699
H          -1.34693405409505   -2.71157458869922    1.88565443614308
O           2.28294320481689    0.84729500247021    0.50055313993364
H           2.94110394117266    0.35608281285769    0.99518711314502
H           1.42923805394132    0.68673522414537    0.94788910392023
O          -0.97939833408158    2.25527817633066   -0.10099583578495
H          -1.84360541564803    2.55177239642162    0.19032297251991
H          -0.66382851198779    1.60827211148374    0.57006935702602
O           1.37487715332298   -0.48494995684692   -1.59326800844779
H           1.13280892630127   -1.20523006040660   -0.96430455590337
H           1.86814915855346    0.15164503567192   -1.02242040599111
O          -0.90588312552351    0.43044835738172   -1.88389177415541
H          -1.35291638115644   -0.23285750309374   -1.22105232220004
H          -0.91864913203383    1.29889479498303   -1.35325743108792
H           0.12970407532118    0.07980174937372   -1.88868376380242
