    19
        -40.91689943
S           0.16997707196051   -1.82121435170533    0.14827942890493
O           1.32104057942153   -0.97532112952569   -0.21964761293829
O          -0.82660885137839   -0.99855374669997    0.84306992052135
O          -0.37719535165681   -2.56278848386109   -0.94255030178703
O           0.74381423714766   -2.83526135888359    1.21408907986497
H           1.28915768170498   -2.30401783117579    1.78903373761093
O          -0.00537057876456    1.16803196086578    2.03269196996650
H          -0.28462935825864    0.31693262024628    1.61396147316338
H          -0.75623772661785    1.45892040962089    2.55411506680402
O          -1.78908979347704   -0.32621790440714   -1.52677896026540
H          -1.64566240129500   -1.21764008873811   -1.87528244303589
H          -1.72064556416110   -0.45946567483273   -0.55957537513290
O           0.58155516360820    2.64916884981975   -0.05550121136042
H           0.35246309091083    2.14335064209088    0.77012224100616
H           1.47677461711930    2.97134640699444    0.06655159639516
O           0.49265090684093    0.76104296502464   -1.75167596119691
H           0.95593766236022   -0.00195127123374   -1.15433313240473
H          -0.48553524287137    0.43539427356235   -1.80095260792921
H           0.50760384739571    1.59824370284271   -1.14561690819456
