    19
        -40.91597556
S           0.55790210232269    1.06445919402996   -1.38859263512140
O           1.48638236022749    0.58217145108931   -0.34748602725986
O           0.37057986537890    0.05155335470879   -2.41232342365603
O          -0.66241499361453    1.58054198209377   -0.83294384258665
O           1.30739458943348    2.27249263050769   -2.07855542541085
H           2.04363482114488    1.84353333065047   -2.50329417083039
O          -0.47184493554022   -0.72913397673004    2.62780243190945
H          -0.81868287214827    0.14744051914632    2.29789815872149
H           0.12483603563776   -0.51979609137488    3.34922047577748
O          -1.24702814658253    1.58437084933541    1.71325304457429
H          -0.95565185539722    1.63766213097745    0.77180299844494
H          -2.18983167468028    1.76003794117053    1.69507712919931
O           0.79920504829157   -1.57429095416658    0.60740398503497
H           1.17728028083364   -0.64589824084044    0.21037317517006
H           0.26795313746038   -1.30103974120554    1.45442899263319
O          -0.79193067399318   -1.97798727344297   -1.32803193104614
H          -0.65763873834287   -2.72821202328615   -1.91112660629918
H           0.11892860978652   -1.86712089612808   -0.10214322018067
H          -0.45907293021892   -1.18078419653419   -1.82276308907458
