    19
        -40.92135388
S          -0.22370551896476    1.08818339030485    1.09594368462121
O           1.19866384240466    0.93919706500677    1.31255353133411
O          -0.51681553705466    1.91194962327216   -0.07746400489924
O          -0.93260779990819   -0.18084869253970    1.04639070271155
O          -0.80729558358597    1.86319844840951    2.34057929082693
H          -0.23927038374781    2.62502218288922    2.40133452096095
O           0.75117184060408   -2.25461728760981    0.72770202539822
H           0.06418824231348   -1.59115689184846    0.93431105214609
H           1.21463237801932   -2.42526787782274    1.54950550696411
O           1.96385551676587   -0.44904398030403   -0.77351187145978
H           1.63699723663602   -1.30639416944314   -0.40961318621117
H           1.90596439533418    0.15748852545651    0.00220208757844
O          -1.88281339813130   -0.88155699678753   -1.32082743112157
H          -1.63973820544922   -0.72421366602353   -0.38015952684788
H          -2.75889339493325   -0.51093382774455   -1.44236755270170
O           0.09994040769829    0.54306016538183   -2.06404665127307
H          -0.67098115844908   -0.11597870526998   -1.97724074298267
H          -0.14026962910401    1.25020346844950   -1.34216002201510
H           0.97697678988652    0.06170923638627   -1.62313141326682
