    19
        -40.91597559
S          -1.52068605441022   -0.76380568740690    0.69047100969436
O          -0.91762573617649    0.44991532933106    1.27506326379223
O          -2.36427396620806   -0.41899432374456   -0.44026386232589
O          -0.54211831433991   -1.77883864782624    0.41411056042075
O          -2.47784537438473   -1.32804824634521    1.81413166946327
H          -3.14771252994128   -0.65396590359313    1.87287630845633
O           2.61785782145441    0.89736881391182   -0.03147048812158
H           3.04102125321268    1.31663463935348    0.72050745006308
H           2.43061024107433   -0.04237363775079    0.25025078058011
O           0.28082370479285    1.80479742671904   -0.38700155311961
H           1.26195841504943    1.48392329654706   -0.29291892530276
H          -0.25449373721386    1.27823090476145    0.38660653680101
O           2.02825012413311   -1.50367864029081    0.79124688560109
H           1.04704446139313   -1.59639066167247    0.73910364463507
H           2.37774600012223   -2.24227571805633    0.28887814512588
O          -0.86278990627002    0.57112606475518   -2.28714403842949
H          -1.46715918233600    0.08464925745095   -1.66328149708283
H          -1.43386325466095    1.04768217170152   -2.89348332413554
H          -0.09674393528978    1.39404354215537   -1.24768257611699
