    19
        -40.92136397
S           1.23719268802761    0.10727759245441   -0.61716201160703
O           0.57177073656428    1.27909562928792   -0.02086568349495
O           2.45752319453231   -0.23698048273627    0.06919318059386
O           0.30860654750474   -0.99034306415546   -0.76712788660676
O           1.63949706119485    0.56482037561580   -2.08352606201385
H           2.51713139223523    0.92275366418978   -1.98401220509658
O           1.06436976273673   -1.44634941593843    1.95135571214899
H           0.78583692709876   -2.23743397664233    1.48165211285492
H           1.73219888192243   -1.02077264140155    1.36711643642355
O          -1.64389224452130    1.38131671257793   -1.53246954467770
H          -0.81744484246991    1.51405439631651   -1.03075436521909
H          -1.37858016231451    1.14921623217286   -2.42396330515916
O          -2.15445919128696   -0.68424310968228    0.07075921874880
H          -1.34298359080561   -1.05977294981100   -0.34154276080622
H          -2.34185314821845    0.09404414334284   -0.49939844657334
O          -0.77533178353547    0.32067373676534    1.86663627251486
H          -1.51433239542293   -0.13157535922985    1.19612093143615
H          -0.10665798554959   -0.42107689311026    2.09164727886972
H          -0.23859182771406    0.89529542003077    1.20634112765689
