    19
        -40.92079113
S          -0.24099792448988   -0.67360015704093   -1.30265016081066
O          -0.34085576736964   -1.26426397866946    0.02481267120965
O          -0.61981019700760    0.74059680866189   -1.27952354279655
O           1.02317484579691   -0.89626691818916   -1.95582986357315
O          -1.34901621479638   -1.40632106358318   -2.16291835907205
H          -1.18031356936865   -1.09733449725269   -3.04754041259015
O          -2.31347130353872   -0.37894802261326    1.50941104133916
H          -1.70561848697988   -0.86253862304393    0.90142957163346
H          -2.29114329572721   -0.84578047212513    2.34717238604484
O           2.65488629276729    0.64948782671652   -0.56627449707620
H           3.55015717490249    0.33698608080538   -0.71014573363268
H           2.08258723772014    0.12596863191958   -1.16832199529390
O          -0.82643849068480    1.64471125182417    1.01562009861510
H          -0.76886761851052    1.40514556153036   -0.00905569051307
H          -1.55216779984584    1.01231090180702    1.33782799746108
O           1.17737916338892    0.27595072190524    1.58359776251959
H           0.07706629703599    1.20601473088057    1.37496186071261
H           0.75257293588059   -0.50582322053939    1.17594194102397
H           1.87087673078040    0.53370443680797    0.93148492480026
