    19
        -40.92007364
S          -0.96578328546264   -0.24790526470263    0.97660716706852
O          -0.52881434447986   -1.24384454276712   -0.02229627427287
O          -0.35316837903872   -0.48964075059664    2.26366066449375
O          -0.81435263562633    1.09108512500716    0.47087371239070
O          -2.52099009333059   -0.50027541690097    1.15483881937185
H          -2.56299380057807   -1.19590998162172    1.80419906983250
O           0.61853315129444    1.47342700604992   -1.69648383263503
H           0.14441807043591    1.66532199614549   -0.85658362954444
H          -0.07494295654012    1.02044502610431   -2.23043180904961
O           2.10652884002092    0.17819883081540    1.71524574091269
H           2.68215723511825   -0.30913010680967    2.30883584258538
H           1.18108917976268    0.00564537281130    2.01937463625064
O          -1.50053946288911   -0.04242289338295   -2.22758948781713
H          -1.24032172495800   -0.61922033574862   -1.48511934438877
H          -2.27975698796893    0.43138642228962   -1.93040107463710
O           1.76158242648677   -0.48758704432796   -0.72034751319210
H           2.07813303760576   -0.18418030152126    0.20001685593661
H           0.87515436350493   -0.96177350085539   -0.50574379556447
H           1.39406734664372    0.41638036001193   -1.23865575772802
