    19
        -40.91908977
S          -0.69365790778129    0.94694556593976   -0.27364128215097
O          -1.01563358366291    0.01625497056580   -1.33846840735542
O          -0.50640318181408    0.19097635644844    1.00073927600401
O           0.46314901321443    1.76042344651527   -0.55695020338691
O          -1.90367093117894    1.89160573474445   -0.03866582517515
H          -2.59006708911079    1.30276342654471    0.33830821848289
O          -3.11725974720399    0.01119400340547    1.36001641658578
H          -2.15980805295947   -0.17545509084310    1.39565986065504
H          -3.37892669996370    0.28151718310876    2.24332594798076
O           0.73925415679874   -1.83653690156496   -1.58453523086123
H           0.05456619752743   -1.10679492874835   -1.61818219730380
H           0.25492735080187   -2.65517577779512   -1.71088182373056
O           2.84606872573307    0.88502493933836   -0.04246338319123
H           3.27473038762262    0.81872260578866   -0.89893609404634
H           1.99703449010407    1.37529761024380   -0.20040604081014
O           1.54866089980507   -1.14667879245749    0.70315289715637
H           0.66385034213797   -0.60625699896915    0.95228428156339
H           1.30349441519931   -1.56638291917427   -0.21139672817713
H           2.21969119475155   -0.38744443310174    0.48104031770753
