    19
        -40.91940429
S           0.95759625556521    0.07588193583431    0.46685113371811
O           0.90637644890125    1.18581986083496   -0.46170383758507
O           0.15076446135395    0.33940268151042    1.66287599315230
O           0.54550218562167   -1.18091277628988   -0.16861357117304
O           2.41827735043617   -0.10780788154535    0.96890345622330
H           2.87957296286889   -0.49822713117877    0.19710914375504
O           2.94641681909880   -1.47686365768069   -1.21780370227645
H           1.97644835165873   -1.50187796475990   -1.10517432199308
H           3.25943600886130   -2.37909918070420   -1.11834189857530
O          -1.34969461648774    2.39690644331598   -0.76266489406745
H          -1.19284855716272    3.31028867020221   -0.51364692549713
H          -0.45320735782449    1.96068344218568   -0.78168675536475
O          -2.04711366256651   -1.40793478400679   -0.24921127665873
H          -1.05718207338991   -1.37437155549962   -0.31784550186889
H          -2.25367409659122   -2.20868978475183    0.23735251753745
O          -2.17639105637907    0.79527543562515    0.99634009466893
H          -1.99202195564433    1.51723384415989    0.27214297208382
H          -2.31496454811759   -0.08426223890259    0.48171608452274
H          -1.20329291015258    0.63855464160567    1.41340127941524
