    19
        -40.91940427
S           0.77438172991884   -0.00009361920433   -0.73625559007095
O           1.01159435331343   -1.18903147227140    0.05540267164941
O          -0.35087628705365   -0.18532457118043   -1.65833406626949
O           0.56153716677106    1.17989621509145    0.10950254066129
O           2.01692905973111    0.27941395302287   -1.62922738795323
H           2.68501732102950    0.61460298653034   -0.99496172155024
O          -1.04209292490156   -2.50132874110565    0.89682862524965
H          -0.96032890938464   -3.38268301529156    0.52624787379554
H          -0.18413174829913   -2.03704715426557    0.69019913780681
O           3.16423500071866    1.46539282929252    0.42294308284709
H           2.20466490564045    1.46621195855664    0.60604844600091
H           3.42687636591233    2.38327456999567    0.32064789787231
O          -1.88876504866694    1.30661293190905    0.98096550152053
H          -0.92373565763005    1.30261462168551    0.74766508612671
H          -2.23774466714993    2.14007338362954    0.65816352882163
O          -2.36826457693046   -0.77936008932816   -0.37590207209288
H          -1.56567185374705   -0.55190635578878   -1.04667783802530
H          -1.97069346226414   -1.55618796687387    0.18778939722659
H          -2.35293077690702    0.04486952546662    0.23895488606412
