    19
        -40.91649226
S           0.23371586921384    1.66946498915203    0.61746520359110
O           1.46294709166405    1.75278600396285    1.35148040921392
O           0.44379564320401    1.52376894480545   -0.83054290600923
O          -0.69940946024820    0.65653700353360    1.10077705275427
O          -0.51785669279311    3.05316970833635    0.80595384202227
H           0.19074497102327    3.68833308717647    0.84802030250439
O           1.37873164408086   -0.96293524429560    1.43053032779350
H           0.50405711749494   -0.54144204835289    1.50393280714823
H           1.97889522164303   -0.20992058717183    1.51018498338693
O           1.20137793736534   -2.13471042210287   -0.90417340419123
H           1.37953568782655   -1.71395970485039   -0.02018443608521
H           0.98725027088283   -3.05319791814929   -0.73315435153062
O          -2.42400947351243   -0.56720679294634   -0.39677844016227
H          -2.71521293891778   -1.33779425659843    0.09411913488155
H          -1.90834405620964   -0.00868301453771    0.23819167860528
O          -0.41406040800847   -0.47387119381054   -1.96689699329529
H          -0.02687678546923    0.44711379206410   -1.54382057041850
H           0.23908650850874   -1.18861897346519   -1.63470780718242
H          -1.29436815775943   -0.59883338274177   -1.47039684302466
