    19
        -40.92135396
S           0.49470838925317    1.39989585934581   -0.48089074659284
O           1.49026159690175    1.17693374374848    0.56818653846484
O           0.82232501598320    0.69218991979088   -1.69914220904922
O          -0.85190184945666    1.12749970499926   -0.00360237974557
O           0.53464843773718    2.94250638269207   -0.81129488861762
H           1.38680952331027    3.04934133786870   -1.22250594319302
O          -1.02367380466878   -0.29398396774818    2.22071854672948
H          -1.11036946558232    0.28474359282261    1.42939697580673
H          -0.98733332713013    0.28777980239291    2.98218208537115
O           0.59848294094228   -1.82064623366210   -0.99214657254436
H          -0.38718912611848   -1.81958708765372   -1.04514860065405
H           0.84427551560367   -0.96597756931959   -1.41886858833492
O          -1.91707104652476   -1.03667258136800   -1.19501361499489
H          -1.66639486651116   -0.19233817838661   -0.77184447959928
H          -2.16724083780931   -0.82141603633052   -2.09516186237845
O           1.19530471776059   -1.17800746504736    1.32188317688574
H           1.47819922078289   -0.20976238184650    1.07426981171687
H           0.30878616162034   -1.02276156280585    1.79738103429879
H           0.95737280385979   -1.59973726964441    0.34160169640694
