    19
        -40.92136389
S          -0.90787253268311   -0.60086886211505   -0.85807385032516
O          -0.47844180602947   -1.32672416563925   -2.02744221883396
O          -0.48412100770504   -1.25489604194515    0.39273719929591
O          -0.54128456420602    0.79744826753734   -0.85719397891323
O          -2.49466511967503   -0.65337688533674   -0.83226055581940
H          -2.70908023092493   -1.47423797334863   -1.26634714755911
O          -1.38569811495668    0.53582224154198    2.17814967001444
H          -1.15123276605499   -0.23303476194927    1.62495184924560
H          -2.22207071708299    0.86035623982812    1.83998306235791
O           0.76969739267112    1.75810762298932    1.19736724918711
H           0.08378467334051    1.51366501184684    1.85729010937638
H           0.28050391285986    1.68637559455658    0.34581573278857
O           1.93256336627638   -0.28898488395693   -1.79191136705382
H           1.76440366087373    0.61210484390198   -2.08132595671050
H           1.11348283156959   -0.78824990739394   -2.01184309203702
O           1.85529305614309   -0.42459638569803    0.75526445967262
H           2.09048069908930   -0.37227389466997   -0.23986761495070
H           1.52494482653141    0.57940254268478    1.04127887356722
H           0.95931244006050   -0.92603860285474    0.73342756672180
