    19
        -40.91836651
S           0.08515707878018    1.44086951501358    1.34447189136042
O           0.74327079691798    2.14828213073535    0.26153610218893
O          -1.33343912503781    1.20311455181585    1.03352099039037
O           0.76791258643635    0.23070184087167    1.74015479005060
O           0.09311416023224    2.40280918492109    2.59469210865905
H          -0.25958065511280    3.21056170482988    2.23405488379838
O          -1.03021422484918   -2.44157477038491   -0.57239266691125
H          -0.10848303458369   -2.23269547025416   -0.30222794054270
H          -0.97681295338658   -3.03396638220104   -1.32476349382623
O          -1.63918341250040    0.00792992025966   -1.09592121534857
H          -1.56811494463777   -0.97576230915730   -0.86277202598557
H          -1.60690277800609    0.54082921233289   -0.16481304375466
O           1.42202374610928   -1.50070580770462   -0.04384750981278
H           2.18105951597401   -1.98444777862655    0.28620396083788
H           1.18922065911949   -0.84982848167861    0.67593978024089
O           0.71460295818550    0.53243526687426   -1.76957317778536
H          -0.70556969699047    0.25163829648594   -1.52700060908913
H           0.83695232428228    1.27044680718724   -1.12022461304562
H           1.19498698907132   -0.22063744133222   -1.38703821143362
