    19
        -40.91039588
S          -1.80145662946375   -0.50068053525785    0.48862682099447
O          -1.69839822792467   -0.40392033631572   -0.98336704302467
O          -1.20353826656606   -1.73213105074885    0.96392099140449
O          -1.30934586238466    0.69295857968390    1.12809148235645
O          -3.34530198961699   -0.59209100910468    0.79293708062094
H          -3.57668895688228   -1.47064014505325    0.50588439491089
O           2.86658550778830    0.79358384713514    0.24547980109504
H           2.26296902056127    1.50948607856988    0.46491529164566
H           2.52237000734446    0.00090040887321    0.66818973140716
O           1.26888765392018   -1.58529669275561    0.22356590722788
H           1.57957799759563   -2.47026102050527    0.02270400078764
H           0.35462804156178   -1.68452649060101    0.59866782313319
O           0.39998872399141    2.21357998123798   -0.09332798597927
H          -0.05639813368430    2.99744343165420   -0.40390304273157
H          -0.24615533385851    1.71723853227379    0.47209307840314
O           0.61560914075503    0.12985701668975   -1.57834764226338
H          -0.43874053389568   -0.11466884773217   -1.42379228635679
H           0.71555525395327    1.03226514061269   -1.11925733720616
H           1.08985257678819   -0.53309690866409   -0.97308106643715
