    19
        -40.92079083
S          -0.94181679488747   -0.31914372875368   -1.10462247187889
O          -1.42550297264999   -1.66466804834313   -0.93246364029416
O          -1.48140820430178    0.60404187353602   -0.10429616338485
O           0.50807470482601   -0.21138922838635   -1.18917435830290
O          -1.47441548051253    0.19647836462916   -2.50291509133870
H          -2.40724306020088    0.00943796502954   -2.46607106843102
O          -0.71135509750850   -2.20840158650711    1.55316452663954
H          -1.07424726366720   -2.03289258316518    0.65793256063224
H          -0.70549624588103   -3.16189666116416    1.65643195893666
O           1.48185858541497    2.20104307990433   -0.85633014643230
H           1.12550794641280    1.34142703383513   -1.18349430794943
H           2.43562943265981    2.15424813622742   -0.94817017929509
O           1.37915808227113   -0.62365916793175    1.29638340064733
H           1.29787766852815   -0.64717916749706    0.32135453600318
H           0.69580296716474   -1.26377851717622    1.60538152673021
O           0.27422034941775    1.61027838424668    1.32148020768166
H           0.79773668668588    0.69675905554769    1.49196693449649
H           0.79998139966061    2.06035165689343    0.57888430634687
H          -0.57436271342080    1.25894313907598    0.80455747919990
