    19
        -40.92135405
S           0.83783526816070   -1.31613752359670    0.04113994420393
O          -0.43378587440802   -1.94869802226885   -0.23259641410330
O           1.42943002442393   -0.72966379668431   -1.16215301799832
O           0.77709110306473   -0.35246746489370    1.12872684596794
O           1.82984889936603   -2.44698308730057    0.51785344669466
H           1.75269114143630   -3.10069691694987   -0.17020043285320
O           1.04443756949808    2.18627446701142    0.43516928442209
H           1.97341153149279    2.42379896932020    0.42216380544825
H           0.98946258792351    1.29133707669883    0.84106626580912
O          -1.96269414370564    0.07309768610888   -0.89654106344122
H          -2.10317993774736    0.36249794840009    0.03655791699374
H          -1.54052373162127   -0.81229734481060   -0.79300527698822
O          -1.75844712153924    0.32051355492918    1.72694192255885
H          -2.18169292300686   -0.39770265522519    2.20049404344649
H          -0.81359087009642    0.08183081326664    1.65633413109834
O           0.04463048644565    1.26169977679278   -1.72324187691577
H           0.67070673554655    0.43520186064667   -1.65574649587750
H          -0.91917715322743    0.83775874477469   -1.43122023549028
H           0.36354640796755    1.83063591376768   -0.94174280298944
