    19
        -40.91966065
S           1.00263953914821    0.43313088688717    1.31880991326605
O           0.78474973268200    1.76785433344128    0.73992722897788
O          -0.18419126590186   -0.02123916361948    2.02665402717208
O           1.47151394887612   -0.50712735838186    0.33133150760395
O           2.14300663599804    0.60716709106446    2.38993777189525
H           1.76346766054293    1.22422274306617    3.00804476516164
O          -0.36863530188204   -2.19045448455062   -0.84926683589946
H          -1.19432088719555   -1.83417260511323   -0.50177589235581
H           0.32349390772422   -1.89628540766175   -0.23472750425195
O          -2.05377066206178   -0.19276419391232    0.28469954115247
H          -1.37745798076214   -0.17667819088601    1.02281906065984
H          -2.88913957054804    0.06550054776949    0.67867390824070
O           0.81680923995717   -0.33098305975811   -2.30287790327915
H           1.51294689753730   -0.31324433675130   -1.62544546797408
H           0.31980416469094   -1.15559702575777   -2.08067416488962
O          -0.65661776120103    1.36766387357810   -1.22177644169944
H          -0.02068257471859    1.66486659334914   -0.42193184861951
H          -0.04901506897425    0.69819879015619   -1.80300946412977
H          -1.34460066386829    0.78994096711806   -0.75941218104910
