    19
        -40.92343644
S           0.84770099756611    1.10266602431257    0.95449316335691
O           1.51212527165942    1.44737498237280   -0.30348967285915
O          -0.47200523714663    1.68969201469881    1.04620213666640
O           0.83627773810654   -0.33382598395146    1.18118761075263
O           1.72969062273160    1.72384840971686    2.10261543534113
H           1.73034808802531    2.65121555071107    1.88725790321917
O           0.87261965655359   -2.00591276606303   -0.89828747195323
H           1.11187209794091   -1.51840905842177   -0.08271972777596
H           0.05754865063439   -2.47181491737283   -0.68138209900160
O          -1.49390170511767   -1.53707672499317    0.76708796461995
H          -0.66520208164715   -1.10081732902598    1.06468057857413
H          -2.05847154433220   -1.59500342942980    1.53902916553324
O          -1.80844796778425    0.55117085773108   -0.89350825094422
H          -1.45958459476178    1.15403608364221   -0.19441886325558
H          -1.94784010719384   -0.29606507600364   -0.42097603758836
O           0.34483633030290    0.17944095708607   -2.09165235712848
H           0.91928327128041    0.78280134422723   -1.45915833235406
H           0.58812083798855   -0.77288404285809   -1.79146025673537
H          -0.64497034489260    0.34956311356048   -1.72550089851065
