    19
        -40.90719774
S           0.11873399307017    0.51442183365394    1.71271453477557
O          -1.06515671225776    1.27490355550681    1.44297921963330
O          -0.03146765290392   -0.77311145148995    2.30382525999391
O           0.97044807363406    0.43546881832572    0.44694274722646
O           1.03674955502028    1.37299272100522    2.65948117589884
H           0.97509692488749    2.28123578092348    2.36898932987482
O           0.51664242152134   -2.94804199146441    0.74527117775040
H           0.41753490668901   -2.23264746994919    1.40091567284444
H          -0.02297078094454   -3.67283691577673    1.06716142577821
O           0.46326674825351    0.48207559069648   -2.81239426916894
H          -0.12077973696766    1.10950165374368   -2.33965070424061
H           1.35789596658078    0.75316781477221   -2.59885585292580
O          -1.18432849305341    1.97069271903347   -1.19336772926666
H          -1.14396923284237    1.75869869182295   -0.24341956788609
H          -2.09061122217731    1.79730320449635   -1.45618327460645
O          -0.42207411235503   -1.09930722561472   -0.90486775023586
H          -0.11675770443298   -0.87290926268818   -1.81079364152239
H          -0.05128089563287   -1.95610292786539   -0.60528409180717
H           0.39302797390896   -0.19550514913841   -0.18346368212158
