    19
        -40.92135357
S          -0.32495691825927   -1.29713536309183    0.80478681543522
O          -0.41355271234738   -1.86138354938424   -0.54254319060737
O           1.04495327690934   -1.17474315509117    1.25264907183614
O          -1.07740949622286   -0.05713992272197    0.91332274435850
O          -1.03995225275594   -2.32481414643017    1.76552224413358
H          -0.44754607510345   -3.07025726547158    1.75645971963722
O           2.02998111256372    0.63068791811057   -0.37107143219408
H           1.61739960420084    1.38784511847231    0.10894853092701
H           1.89218289468209   -0.12555466539139    0.24697810455498
O          -1.71786856048110    1.11118803834947   -1.37230763325405
H          -2.55180801184101    0.76320124438619   -1.69335775141897
H          -1.60198954515193    0.76358051344902   -0.45886246089232
O           0.53913252258248    2.06248355815379    1.27657389603726
H          -0.13922310489886    1.36019159801303    1.24001647273884
H           0.87612161493945    2.06307958410032    2.17416971209919
O           0.41020098357390   -0.09782832493583   -2.09494882734242
H           1.19445335036337    0.29366722133833   -1.44280822720317
H           0.10397682418978   -0.94401480416959   -1.57550193068190
H          -0.39409550701014    0.51694640227812   -1.98802588826701
