    19
        -40.90719784
S          -0.47615359853997    0.13664238637968   -1.72245155153501
O           0.82991854266058    0.04659716533412   -2.28443646676452
O          -1.19708487771780   -1.08027619654489   -1.49423963494670
O          -0.46012223800607    0.96548777164337   -0.43920678618950
O          -1.34608038327325    1.04019685956603   -2.67277059210908
H          -2.25788014835108    0.94152592953937   -2.40435448234780
O          -1.95569381775425   -1.27963422038756    1.11921556097036
H          -1.72023798291915   -1.21165587192936    0.17631020984567
H          -1.75801511937137   -2.18504124875103    1.36763096035405
O           2.94543665464506    0.63953475106326   -0.66174335819719
H           2.24993349215663    0.52856747443635   -1.33669182974477
H           3.69666616314654    0.13284005063386   -0.97647579566947
O          -0.56627551264105    0.38147450674289    2.81009966230160
H          -0.86588289400187    1.27048482392455    2.61177803195307
H          -1.16039561638466   -0.21354794462379    2.30884478369786
O           1.09164503730198   -0.39838630126239    0.92200219299183
H           1.94167749982886    0.00909948682308    0.65255629913132
H           0.83209478310338   -0.12279808888479    1.82860301995357
H           0.17645005611698    0.39888866627876    0.19532977629727
