    19
        -40.92343656
S          -1.08631523046439    1.20384025737181   -0.46507494732932
O          -2.09322951696692    0.16120234057557   -0.26053432247449
O          -0.63744451779430    1.77384424097155    0.78721717720303
O           0.01477301881720    0.73379522146733   -1.29075367497579
O          -1.79592690686863    2.34705866584600   -1.28448405077159
H          -2.51672906898305    2.59662309734147   -0.71468681790320
O           0.52708176254249   -0.22438437109273    2.01068349491159
H           1.35153061346938   -0.18472874115863    1.48224434160894
H           0.05379462163660    0.60695116856007    1.76821503079518
O           0.64809608080524   -1.85854622031781   -1.31233558485478
H           1.56353438166258   -1.75216671611804   -1.03096706359381
H           0.35855599571892   -0.96181312540586   -1.58091128955643
O           2.26737302155992    0.19736713679132    0.00797260977391
H           1.49981122958635    0.52334509318668   -0.51201759516607
H           2.87472028309023    0.93489203768986    0.07991897647454
O          -0.90293402276206   -1.79304757109217    0.70480335082010
H          -0.29416329611680   -1.23317648425029    1.38170883234002
H          -1.53894065021022   -1.05625705561695    0.32157186390524
H          -0.29358779876443   -2.01479897484783   -0.09257032113506
