    19
        -40.91912324
S          -0.18222313132429   -1.32068619733269   -0.09654393799575
O           0.00047081342471   -0.83640432937544   -1.52999244092847
O          -0.83430948316073   -2.59095618834303   -0.11415404954140
O           1.04491140275099   -1.21288568070616    0.63288838186834
O          -1.16259396343250   -0.26482644072223    0.53741293052349
H          -2.06275491559264   -0.53426246844183    0.21372140988943
O           0.05676911743377    2.30184314663606    0.69510988298651
H           0.90283722059876    2.10447858203629    1.12147408626093
H          -0.51556387718706    1.54384899305136    0.86518723951279
O           2.53380851393328    0.96037833233792    0.93180086240633
H           3.33156396103359    0.77863300889671    1.43028980506506
H           2.03263582070743    0.11945193544888    0.89890029287326
O          -3.21890807417982   -1.51611386923203   -0.39079747411509
H          -2.52143960727627   -2.19220476826673   -0.49249063591180
H          -3.86715091278928   -1.87361365403369    0.22120924487985
O           1.22669464432941    1.35515520474361   -1.48789636916154
H           0.67377356743020    1.90336796304929   -0.88071207833444
H           2.04028217056168    1.20874876178642   -0.98191938884090
H           0.52119671274968    0.06604766846333   -1.57348777143138
