    19
        -40.91912309
S           0.23649208887575   -1.30970957835571   -0.13250826328994
O           0.94433858083174   -2.54877448210516   -0.18544171910734
O           0.01450097975491   -0.80302849036277   -1.55255361633548
O          -0.98473652693577   -1.27267220963756    0.61359057841103
O           1.17704863726467   -0.22482366721702    0.51332552753839
H           2.08490826174775   -0.44864937265469    0.17680086999652
O          -0.14589046110201    2.28530790025237    0.73621189637961
H          -0.97530074281484    2.04230329706507    1.17186654371969
H           0.46194126596385    1.55034088606763    0.88236361273885
O           3.27832356939858   -1.36648595961044   -0.45551577046664
H           2.60972317468187   -2.06960342633115   -0.56717131850453
H           3.94454181174169   -1.70784647339352    0.14635279589236
O          -2.55316421398173    0.83094055315527    0.99343318133501
H          -3.33140881493541    0.60576357838293    1.50495673811130
H          -2.01867979936878    0.01253460317179    0.93164907167738
O          -1.31191031939819    1.32727692942411   -1.44442373952993
H          -2.10859573557620    1.13404564801065   -0.92754568270651
H          -0.77349834293922    1.88881520489031   -0.83652884383286
H          -0.54863341321116    0.07426504924353   -1.56886185203060
