    19
        -40.92044510
S          -0.10270353457416    0.10394944325043   -1.58962528749550
O          -1.17575154989498   -0.79337036280345   -1.16704647465139
O          -0.42265380642296    1.48881094707353   -1.30352932410887
O           1.18047335099916   -0.31434518766687   -1.05244114302233
O           0.01905668353475   -0.01795926804820   -3.16302253463808
H          -0.68902791879445    0.53077994890193   -3.48687443042650
O           1.90840237394456    1.04652479232035    1.02224147349501
H           2.82724992435920    0.83670491418624    1.19984582349706
H           1.69010085922940    0.65163308772642    0.13810259384493
O          -1.87265961741102    0.98298418738518    0.77352662210859
H          -2.28099113605776    0.22491377006476    0.33429810309632
H          -1.34634241975944    1.40050543044389    0.04366345431743
O           0.05650869572611   -2.10657350099089    0.67847366894271
H           0.93074635479239   -2.08297023903047    0.27256796797122
H          -0.53269202314777   -1.76087008388890   -0.04328247425518
O          -0.06515089616329   -0.06946121302595    2.15468713277755
H           0.76794177557047    0.44307190385042    1.84197672590012
H          -0.87502642933208    0.42881655268915    1.69020430840827
H          -0.01748068660062   -0.99314512243563    1.65623381423781
