    19
        -40.90719779
S          -0.23521325749582   -0.89624465560465    1.53498317161767
O          -0.72302373250824   -1.95482892395562    0.70185103098319
O           1.13053310103988   -0.93580998075477    1.93846607305834
O          -0.57474346734264    0.44951300147586    0.89644795141059
O          -1.11929951422785   -0.86168183829873    2.83634022331621
H          -2.02197213585400   -1.03034020705822    2.57215826017647
O           2.82020386593394    0.91558292247325    0.85284574594692
H           2.26855525998419    0.30253987646611    1.37381020656756
H           3.69662259865514    0.52607752512042    0.83550641896929
O          -1.03811331314307    1.62208589770618   -2.15827339250462
H          -1.42005724009376    0.72802123450556   -2.04385918625242
H          -1.47925536562068    2.17460055692712   -1.51065323228063
O          -1.80049685929324   -0.95746642908871   -1.59820184675232
H          -1.46256786265388   -1.52202008175166   -2.29648581477476
H          -1.44830797807354   -1.32972165027084   -0.76973374551889
O           1.00157062927085    0.42085833377428   -1.01016048911476
H           0.06233229909410    0.47099353529882    0.04624775047983
H           0.56098774332751    1.05021958732985   -1.62268264022032
H           1.78224521901129    0.82762131570309   -0.57860647511196
