    19
        -40.91912311
S          -0.41664332647964   -1.14318646361166    0.55541153658173
O          -0.69174368167375   -1.30594669084881   -0.93475758132247
O          -1.22786953028753   -2.06658491728652    1.28233550795069
O           0.99170187894770   -1.14940653863463    0.81212531159834
O          -0.91328367868468    0.31621547688448    0.87457961680623
H          -1.90011309535322    0.23233495043534    0.95673622990468
O           2.81647524390083    0.43206993932145   -0.28297526812840
H           3.69910366541787    0.22259798267928    0.02543005423939
H           2.20878612299929   -0.17043785146318    0.19340482728005
O           0.67263625951728    2.26201518667800   -0.46743609841503
H           1.57177901212896    1.99431597313752   -0.22977657095274
H           0.08582091476220    1.83322350477082    0.16719992469933
O          -3.33989108748837   -0.50182707431612    1.18995955230397
H          -2.84747161681694   -1.34467699065170    1.22405722435251
H          -3.76327086455963   -0.39146725885973    2.04506785670984
O           0.80989541836556    0.25978794000957   -2.20061698078991
H           1.71543195979954    0.07518739852213   -1.90910760289202
H          -0.08075431497379   -0.68905905394094   -1.51205708433988
H           0.60941072005333    1.13484451691942   -1.78958046424286
