    19
        -40.90719787
S          -0.05428555880789    0.58732360687955   -1.69282431273054
O           0.21888960974651   -0.77405457903881   -2.04617053766003
O          -1.41129922263561    1.02120448642806   -1.69587517172084
O           0.61656524256191    0.90988339759398   -0.35870265333261
O           0.74707131852327    1.51166930104968   -2.68254396328121
H           1.60035653478980    1.10580859456585   -2.82511259046227
O           1.49013798358643   -0.74505635397975    2.36388849307770
H           2.01195529550186    0.05354204505420    2.26754644863416
H           1.65108543641499   -1.26350428248241    1.54930380349338
O          -2.57575479429378    1.53845985188474    0.72014375681111
H          -3.51586487915873    1.37348905919688    0.62463321708958
H          -2.20613738497618    1.49233649649352   -0.18139023459099
O           1.61242308498658   -2.02743584326409   -0.06321169349107
H           1.14229121761408   -1.58842227837858   -0.79488244166037
H           1.19015973931825   -2.88334214284682    0.03532451629207
O          -0.82602702038766   -0.40126094561966    1.16456383146444
H          -1.51400505343190    0.27166649241079    1.35216403273750
H           0.04530620601103    0.33954086509041    0.33241016673956
H          -0.22286778537035   -0.52184776104155    1.93073536259444
