    19
        -40.90719781
S          -0.92750602903266   -1.43907537565449   -0.53221933285357
O          -2.03423751636680   -1.28466277878751    0.35165381601583
O          -0.98418342600052   -0.78309131058778   -1.80468623252290
O           0.38136825892210   -1.07721838397963    0.16746353731893
O          -0.73286403002930   -2.97877771445353   -0.79268444250837
H          -0.12694413845643   -3.06945608985531   -1.52603211960830
O           2.48331314993036    1.47034047895105    0.18993693387342
H           2.13910576512151    1.28384008700792   -0.70726654544958
H           2.91916560453327    0.66370203809932    0.47070291706015
O          -1.65560112259460    0.23109970787967    2.59160444664507
H          -2.50478503343616    0.61117214224886    2.82531243770112
H          -1.84082925825260   -0.41666440707062    1.88612668730363
O           1.17512810928273    0.85055310243922   -2.14581044826961
H           0.81689178531184    1.66435634890372   -2.50628099860257
H           0.41400836599333    0.24931142255954   -2.05542259231687
O          -0.08317488566180    1.28482316490907    0.73748367793440
H           0.24133457296173   -0.05117538506016    0.40724981722407
H          -0.51056345867769    1.15699526471180    1.61059987926901
H           0.83037329644733    1.63392770773520    0.83226856179718
