    19
        -40.91039654
S           1.66987175996536    0.95800004050127    0.18613059849610
O           0.62229927685181    1.63427001827906    0.98168342406213
O           2.13580074718031   -0.23530376566549    0.86331524476691
O           1.24379025096221    0.74981254234908   -1.17417495958189
O           2.87869925996283    1.96837013194568    0.14786851357306
H           3.21505266578627    1.94825355523479    1.03907288388922
O          -2.00477528967627   -2.02298959865838   -0.90557622024108
H          -1.17007678302259   -2.28176146546622   -0.50345463278985
H          -1.79662692688720   -1.37217898901999   -1.58244484528839
O           0.04163600533254   -1.73429449365512    1.08144458328537
H           0.90107627610315   -1.24763925682724    0.97573173099918
H           0.10918921705931   -2.23468157143007    1.89697931817223
O          -1.28561472663973    0.62478058819389   -1.73637583632871
H          -1.54422987207155    1.44254943576369   -2.16479839228413
H          -0.29829793965932    0.65292386339505   -1.64852830496195
O          -1.45023291546776    0.34310228806364    0.81139603941989
H          -1.07015210163443   -0.58627737615854    0.96187368158287
H          -0.57802994377335    0.98756381668949    0.95931278293058
H          -1.61937895040028    0.40550024650058   -0.18945560967311
