    19
        -40.91596507
S           1.72932380995484    0.09430962298604   -0.18323912540035
O           1.56955057967964    1.27896640752331   -1.00474955343783
O           1.68763033623566    0.36320392335474    1.23444138002017
O           0.80259872805714   -0.97210158740473   -0.58606906466408
O           3.16682361914980   -0.49823094287201   -0.49354572059379
H           3.74202587328259    0.11892462092506   -0.05257128055595
O          -0.01372010026806   -1.48114428495335    1.98551615525989
H           0.62259874887778   -0.73403987744111    1.93556405715867
H           0.21043945807343   -2.00884694946840    1.21066452630991
O          -1.50848695046403   -0.22405184058356   -1.09708903894617
H          -1.93582632755232   -0.30364659909992   -0.15111462761071
H          -0.53275184006195   -0.59736938657330   -0.96361248807112
O          -2.31136804221986   -0.49068695054453    1.27879108866899
H          -1.45218759931052   -0.82546692670929    1.67435458869690
H          -2.97764479509343   -1.15260055511751    1.47237962499507
O          -0.80103269885408    2.16942964115095   -1.43796338791392
H          -0.79171222912020    2.52492507004484   -2.32928893565754
H          -1.35392678257008    0.78675962406771   -1.27395476728131
H           0.14766622219339    1.95166698071889   -1.21851345096888
