    19
        -40.92136390
S           0.54682483210240   -1.13297471407187    0.58219848163727
O          -0.14180832703598   -2.39967478563333    0.56724108191664
O           0.94376640849860   -0.69569056465003   -0.76776049019031
O          -0.15947834183216   -0.07994305397158    1.27660383406495
O           1.91254314208160   -1.35405713118256    1.36138186529752
H           2.11835786458233   -2.27335950827404    1.21723539685228
O          -2.36451283857870   -1.18757259990703   -0.16415806454121
H          -2.60717633968453   -0.75658539414754    0.66012434714181
H          -1.63143517129264   -1.80064137129720    0.07107285319742
O           2.00897748049568    1.69980145485778   -0.18925147434343
H           1.77735694803130    0.79769976747063   -0.48024881830633
H           2.47504178000862    1.59864871055773    0.64243292377991
O          -0.60341546851961    2.18017859070238    0.02830274598748
H          -0.55691088872208    1.48552282367136    0.72458937803308
H           0.34490222714902    2.36833856913488   -0.14757909992837
O          -1.10263600917106    0.44366441633482   -1.66693149617039
H          -0.21375187733729   -0.04476628416786   -1.50603547119896
H          -1.76833889109189   -0.16859619031937   -1.18664774306540
H          -0.97830652970959    1.32000729490100   -1.02257024016172
