    19
        -40.91520639
S           0.03249912515387    1.21608065839998    0.29709413569460
O          -0.94934487356065    0.17628111768523    0.05458066011326
O           0.43399167476770    1.36648085045797    1.65755409817478
O           1.25054093063228    0.98092222852313   -0.58525236364543
O          -0.54378625466542    2.55152869400776   -0.25090477470035
H          -1.53080286493984    2.51820172030395   -0.18236963660523
O          -3.04055277264559    1.80833864542566   -0.10559191892751
H          -3.51389397395826    1.72891452753336   -0.93761693273718
H          -2.56399548283151    0.97082123767106    0.03605076132381
O           0.89719022470205   -1.26908267090594    1.94829976844103
H          -0.00089161071581   -1.56418243423117    2.11347075964324
H           0.86606355441951   -0.29739134639259    1.98170749245530
O           1.93161449000738   -2.43951549716742   -0.25372547407255
H           2.87257901376194   -2.25562321466276   -0.24966562278743
H           1.58111522878273   -2.07772429264898    0.58820547950195
O           0.51749804060672   -0.98781328685962   -1.92749216644236
H           1.02767471633574    0.21821313742075   -1.26638754165103
H           1.06596781375534   -1.66405021655087   -1.44992270600051
H          -0.33346697960139   -0.98039986802283   -1.46803400778215
