    19
        -40.92120615
S           0.74865399012659    0.77986912129642    0.85590391595621
O           0.33927143685048   -0.60442744283743    1.02965077527668
O           0.67859866763447    1.17716156224977   -0.55044749720618
O           0.12377397535250    1.72014858334503    1.74490140712558
O           2.30620556241157    0.77934792591672    1.21032089207067
H           2.47400290564285    1.66181601600619    1.52714607134568
O          -1.89903041080287   -1.12429039416825   -0.33998388879840
H          -2.27191037801282   -0.23895667765669   -0.13971588095572
H          -1.22248363678202   -1.24018295540918    0.35383730708030
O          -2.23439831296629    1.36268337787459    0.54872339985243
H          -1.38008298950470    1.56819661426050    0.97544466644145
H          -2.91427642810532    1.72929182389249    1.11797785908600
O           1.70953586891845   -1.90154157772508   -0.78630444624562
H           1.28603423146358   -1.54839811192618    0.02992643394239
H           2.59646913507680   -1.53734672128014   -0.80569852784048
O          -0.13352590045036   -0.63001891436056   -2.03190510541247
H          -0.98538820908450   -0.90515605274051   -1.44887109799893
H           0.18553314529663    0.23676806074757   -1.52700269355897
H           0.59301734695218   -1.28496423747716   -1.76390361016535
