    19
        -40.91596540
S           0.97578773912355   -1.33888091735946   -0.53427542861168
O           1.98978805453797   -0.67096094508456    0.24644093230525
O           0.15187094011331   -2.24780381275263    0.23970054724311
O           0.15926679248044   -0.40536951383875   -1.32158101535577
O           1.73395699251434   -2.20839978663314   -1.62182552107129
H           2.37990451342285   -2.67325376689448   -1.09929126141235
O          -1.78938422057935    0.55643485105320   -0.12110152725190
H          -1.02419402814399    0.13432520293754   -0.70861162782952
H          -1.34626061480151    1.40268826538826    0.29316822935696
O           1.61369106726830    1.79346202268605   -0.55574309103463
H           1.21848688769974    1.47003399827468   -1.37326098056036
H           1.92486492466805    0.96947000500379   -0.12006125522902
O          -0.49564230135350    2.52676984978167    0.77552830223543
H           0.38949388778955    2.30724006437404    0.35720969471197
H          -0.72764368301879    3.40825054960032    0.47757752042534
O          -1.78292570675470   -1.26685080662680    1.61668229356982
H          -1.90457667092245   -0.13120834510086    0.64748617044153
H          -2.48120758107178   -1.92483213756146    1.59860212494677
H          -0.98527700296026   -1.70111477722694    1.20335588312303
