    19
        -40.92079071
S           1.17253645660047    0.85868222778403    0.30757050515518
O           0.58290066433938    0.60569468429013   -0.99996539220359
O           0.15214851208325    0.83818494599734    1.35731752858638
O           2.30324663183697    0.02281003165078    0.61897892339276
O           1.69844793179202    2.34989942717556    0.23947978163674
H           2.20592237614364    2.44092848216093    1.03993582062399
O          -2.02509608583675   -0.03585592083702    0.56837768072261
H          -2.18468115722591    0.65405774274146   -0.15889694649927
H          -1.16527447987270    0.34526930521100    1.04442491492188
O           1.16147747499234   -2.33175726632392    0.99303349183305
H           1.62758974586320   -1.46893914216417    0.94853493772038
H           1.83745276770289   -3.00540881508536    0.89778960877219
O          -1.80784099909517    1.61781306750807   -1.37294875920020
H          -0.84419819299570    1.41321002493675   -1.32299951701301
H          -2.08632569566846    1.40621089578747   -2.26622265020797
O          -0.72001105601508   -1.70564032575999   -0.74424526644039
H          -0.12853520843451   -2.15285574503929   -0.09449241741092
H          -1.61274708939335   -0.86999026021724    0.04759113680556
H          -0.16701257683243   -0.98231336986549   -1.10326336119120
