    19
        -40.91274176
S          -0.43664073056932   -1.14760063536238   -0.45425900651654
O          -1.25734887713428   -1.42334232261663    0.70941022796196
O          -0.86200954932322    0.12213073470184   -1.07596902700059
O           0.97960911566206   -1.17175751451335   -0.18206019948148
O          -0.72339597813646   -2.27167524945598   -1.51234718621691
H          -1.65767663108026   -2.22793494857720   -1.69559398145964
O          -1.23372707657548    0.54160305552385    2.38148038270013
H          -2.13054694267272    0.65808837498562    2.70223552380042
H          -1.23968118207442   -0.29522150802190    1.84012018235036
O           1.21060583430502   -0.37470861222676   -2.87592180893543
H           1.53610072791821   -0.90186449663128   -2.14065411109055
H           0.39103369851307    0.01659094469930   -2.55804723914134
O           2.06226539821787    1.02527885819362    0.73090695044117
H           2.37277845476019    0.82651781165258    1.61713278738547
H           1.81195486402245    0.16062595428008    0.32257409912770
O          -0.27806621275136    1.93559231059534    0.50460956190766
H          -0.57201044606158    1.26803839266459   -0.26148894698109
H          -0.70967790770605    1.51936426976289    1.34526875240924
H           0.73643343069088    1.74027457035069    0.60260304873904
