    19
        -40.91940437
S           0.50636492814301    0.53625348832919   -0.77376339698435
O           0.57794581629012   -0.85222190177221   -1.17826243448751
O          -0.85540971685909    0.91554651165579   -0.38002712941841
O           1.45689792644432    0.83109079757268    0.30340740047438
O           0.91988892807330    1.44212357438349   -1.96849397557141
H           0.14934620568939    1.39221517284350   -2.57250869825677
O          -1.53201986614409    1.24327857256837   -2.90708824189179
H          -1.58286882107886    1.02182284197649   -1.95697943747422
H          -2.03134856968192    2.05427462105918   -3.02888480220262
O          -1.37723780784496    0.21244938099729    2.07218788008411
H          -1.28625464342469    0.45782703415320    1.11440570469007
H          -1.58971093026971    1.02469956714347    2.53669276398284
O           0.90198189813060   -2.62305470640354    0.66718554841047
H           0.70273389233101   -2.03709231314136   -0.11467953553768
H           1.71751888578368   -3.08080791126799    0.45226377710415
O           1.00274861233418   -0.64481244405100    2.22260808205045
H           0.98591368023391   -1.55346869313170    1.71905201967462
H           1.31621950781508    0.03344695145190    1.45644206346160
H           0.01729008403455   -0.37357055436703    2.33644241189144
