    19
        -40.91907731
S          -0.45600273615263    1.57711266093034    0.29081401711816
O          -1.88819701175901    1.73640620884339    0.19484350224041
O          -0.01986598565104    0.76538035149657    1.40361009184791
O           0.12337437213245    1.08468348933526   -0.97710565481311
O           0.16287007525493    3.01932496638979    0.49738870186854
H          -0.39404428579398    3.60535276807017   -0.00836211149835
O           1.36216048120503   -2.35796976729447   -0.33448266440820
H           1.96813512655994   -2.76262782146809   -0.95783049302867
H           1.80732640793414   -1.52753701149231    0.00470564210946
O           2.26498404958568   -0.00469974438775    0.33010782384502
H           1.59935021970906    0.24932287088870    0.99928605084666
H           2.00204366110392    0.51601245712807   -0.44007667685996
O          -2.19463075730387   -0.80339692188883    0.77056601410450
H          -1.55933600484824   -0.75585710261071    1.49673036351682
H          -2.38133753286426    0.14036956896780    0.56659040702990
O          -0.71698838921043   -1.23631485190166   -1.23126642859644
H          -0.36780014581757   -0.24094769227714   -1.25367671779699
H           0.09553514278055   -1.79400472228037   -0.89850950411620
H          -1.40757668686226   -1.21060971645458   -0.45333234341585
