    19
        -40.92011125
S          -0.20171331213789   -0.75188830744630   -0.75810265671438
O          -0.68854967141283   -0.99257516543506    0.61610403867383
O          -0.50798275208976    0.62595273445029   -1.15251249225198
O           1.19576795871987   -1.07837435484177   -0.88203380096408
O          -1.00204457038891   -1.70181437406160   -1.69003636599578
H          -1.89340543271716   -1.29454908719008   -1.74422611276895
O           0.40297192138397    2.26231512990100    0.67250780099435
H          -0.31095669884346    2.87956169108723    0.84551931757845
H           0.12009952915314    1.71983939602818   -0.10523371896403
O          -2.97136095662733    0.04014067586378   -1.82904810574292
H          -2.16501622823398    0.52212301387477   -1.55392274058915
H          -3.17257845306045    0.32671828735519   -2.72294892869196
O           2.78891111554564   -0.81834338024134    1.16311247592183
H           2.31967263308402   -0.90730908105030    0.29571862466022
H           3.03032073332235   -1.70872431627917    1.42691044124862
O           0.72275798662543    0.23807848508649    2.18840781191648
H           0.03050813342790   -0.36048938475206    1.57362268939709
H           1.63845140414582   -0.14804632177213    1.92661185304823
H           0.66414664005654    1.14738434942967    1.72954987916888
