    19
        -40.91317579
S          -1.60414101481525    1.12259920242861    0.51317382240633
O          -0.59269196047156    1.66323364221451    1.44140440152043
O          -1.70343221478535    1.89576261272272   -0.69424347663309
O          -1.36793336697985   -0.29623574713201    0.27780445817739
O          -2.98559478949486    1.22350510705347    1.27355046365073
H          -3.24191994873834    2.13814287500166    1.19065328871095
O           0.73712002419743   -1.68312030355000    1.19519796720523
H          -0.18967798231413   -1.41504532334852    1.03251380609645
H           1.02249107523041   -2.14097248333147    0.37967754134538
O           0.37810979250922    0.32730667525736   -1.57457614683880
H          -0.36317293294822   -0.03593065962556   -1.03635977964916
H          -0.00258712161722    1.12920551403292   -1.94992647316671
O           1.52872009306113   -2.23218999080190   -1.34150643168084
H           1.14682172968234   -1.42996774650043   -1.72413213248037
H           2.40039086927326   -2.34250328913166   -1.72388816487188
O           1.52426829054265    0.64255781806179    0.75502849626971
H           0.65527822449694    1.17287498544598    1.15248630981548
H           1.32766219050321   -0.36489454885564    1.06072152937575
H           1.33028905264518    0.62567164010075   -0.22757947921443
