    19
        -40.91461164
S          -1.21280253709375   -0.34015150470886   -1.03487831373837
O          -0.70370353684316   -0.69776909943092   -2.33943303574092
O          -2.58137991150442    0.05524612265387   -0.95458508323323
O          -0.81396306411543   -1.31360741384761    0.00011108974851
O          -0.33500669682880    0.95415013737817   -0.60066810013289
H          -0.59244375053547    1.67076344022765   -1.17277425403564
O          -1.74785477442973    0.43791855837960    1.78268446551886
H          -2.42335402911069    0.86720813301164    1.25034926383564
H          -1.54235119633677   -0.37248782975227    1.28549345087766
O           0.82784051881591    1.12375118697577    2.04665577649191
H          -0.14787907262964    1.03541699173504    1.91740676721904
H           0.99190655115076    0.92286305863099    2.97100337733965
O           1.84524924203126   -0.39616296957918   -1.98142499549110
H           0.88200385581525   -0.48337660522900   -2.21431693058656
H           2.29675681968726   -1.10226702011490   -2.44936544201275
O           1.53372198282194   -0.78139836756840    0.51188268652837
H           0.54307677642173   -1.12794715064601    0.34105511829913
H           1.81117229662750   -0.51775158507811   -0.44147840400493
H           1.36901052605472    0.06560191697067    1.08228257311516
