    19
        -40.91990203
S          -0.68317882089233   -0.14657657249947   -1.33935618419192
O          -0.63816017404518    1.11673885930107   -0.56787630586342
O           0.27359364716291   -1.09165432705461   -0.78499192865021
O          -2.01336688355136   -0.66786877692953   -1.45389519378458
O          -0.16319402058587    0.22406821312420   -2.78186484847382
H           0.78619146807361    0.28590342684506   -2.69975301785893
O           1.91129315990915    1.76388475419971   -0.32148493283297
H           2.03228315198386    2.70406147346962   -0.17923066268414
H           0.95282091467102    1.62751168813472   -0.48076730691745
O           1.66647952845088   -0.37966104876136    1.30650060515405
H           1.32880686712435   -0.86119227920136    0.51533776163757
H           2.06378949425083    0.42538670023578    0.92055880554900
O          -1.88147512191971   -1.74833202172944    0.94436809320443
H          -1.22521677241276   -2.43031698000075    0.77262664001130
H          -2.13453395951757   -1.41010402652583    0.05481542394871
O          -0.66986425507104    0.31482966648102    1.79881951507234
H          -1.21678818521451   -0.54393667315204    1.63539396699109
H           0.36815487637940    0.01720325098898    1.77078795147384
H          -0.75763490483397    0.80005467306787    0.89001160817429
