    19
        -40.92135410
S           0.74757826071474    1.05585468029839   -0.87251626350737
O          -0.19410064602934    1.98099223770067   -0.28136710393241
O           1.84262135460373    0.72848213740208    0.04156619911324
O           0.11847804986005   -0.14406200720190   -1.40139229899516
O           1.40424960659668    1.78287214126815   -2.10956007526436
H           1.70721458287015    2.60490691303912   -1.73646524888262
O          -2.39760523141423   -0.43537307462509   -0.49312558964704
H          -2.97469812727069    0.19207284203455   -0.93197790936923
H          -1.53666508129758   -0.38157188862173   -0.95206822095011
O           0.61134102102295   -2.38394299597104   -0.08351369342140
H           1.41331236876156   -2.78896291635553   -0.41883962661846
H           0.39045186883122   -1.64797522411639   -0.69854640702645
O          -1.25023448670109    0.57662701549945    1.66216596799297
H          -1.84930444513899    0.06993101124726    1.06333872492105
H          -0.90761979334732    1.29379214388688    1.07805479077834
O           0.86014745000087   -0.70618897942610    1.82341932976275
H          -0.10557806453976   -0.19826868774991    1.88228683082473
H           0.72528989919854   -1.52453289299807    1.23329115084534
H           1.39512141331901   -0.07465243529797    1.19524944338321
