    19
        -40.92343665
S           0.50737383646833   -0.28699996925201   -1.58324690227160
O           1.23279658630102   -1.34716228300719   -0.91633526572835
O          -0.88556097261452   -0.21845230221516   -1.17062352092993
O           1.17785915771341    1.00638579155795   -1.44139966126322
O           0.49599307011192   -0.61175033196591   -3.12473938474073
H           1.42284654543808   -0.62753770993794   -3.34214355526676
O          -1.43480587462945   -1.30807507363131    1.18708110939538
H          -1.28787272006063   -1.02925711765626    0.25626319168540
H          -1.68052655218570   -2.23357706648996    1.15424575882468
O           0.88394201020259    1.69989606835196    0.92533119414448
H           1.10154795093531    1.53920757775091   -0.08482841461808
H          -0.13801409653609    1.80833429336431    0.93085545137995
O          -1.64432082245062    1.56786612951318    0.66139687200094
H          -2.01105859490621    0.93508654092111    1.28877550165785
H          -1.54413717494494    1.06785155128191   -0.17525109596917
O           1.14272864323520   -0.68149969817786    1.61190863784209
H           1.37292096970262   -1.04326197191834    0.72295973853386
H           1.07091727739144    0.73680169829312    1.35060468401147
H           0.21737076047510   -0.97385612682595    1.74914565108510
