    19
        -40.92071430
S           1.15243588375455   -0.29834229867068   -0.88232509298493
O           2.46334009543344    0.06001958199402   -0.39167064663510
O           0.48664450877622   -1.27325978359998    0.00411476232126
O           0.28754816551620    0.83157554334170   -1.13241490496751
O           1.36871987440322   -1.04819685828545   -2.25618769480987
H           2.21835736662378   -1.46793905918074   -2.15553637987345
O          -2.11183137388884   -1.64910183979559   -0.54727056008676
H          -1.13807867883409   -1.62922613566721   -0.46083289257435
H          -2.40590559524088   -2.47022078551345   -0.15021616182866
O           1.48816297547390    1.85371983420474    1.24665970810074
H           2.03225146739730    1.23079805134231    0.70909296221471
H           1.14107383934290    2.49035111250529    0.61472294218203
O          -2.02951116626259    0.93350645494866    0.10418733587037
H          -2.39434617212333    0.06344925242235   -0.16232399634661
H          -1.29822826161273    1.08385184860289   -0.53820535757549
O          -0.38554274499354    0.23673289603814    1.81873524768602
H          -0.01159118132198   -0.51070612250259    1.22273909338262
H           0.34745486968921    0.95857954178182    1.76189935604059
H          -1.21095385212386    0.60440877603103    1.19483229988891
