    19
        -40.92453827
S           0.09318282408287   -1.50423994054776    0.22529986819572
O          -0.59130487197571   -0.92744333339967    1.37716813253695
O          -0.68253934443096   -1.30115330282657   -0.99293498712311
O           1.45765545905349   -1.03679454166138    0.09919054392044
O           0.17540429196012   -3.06272046531528    0.46841130640704
H          -0.73066049396711   -3.35128694458960    0.52756888590226
O           0.00633216667296    2.14903876559017   -0.32306625507133
H           0.38719945588442    1.59648903427676   -1.12696278105794
H          -0.93501679341573    1.72951737215083   -0.14830595334467
O           0.83209362889844    0.52197172682775   -2.06169300138990
H           0.20577128056275   -0.21201337648104   -1.84068847110451
H           1.68432454509513    0.19220276113059   -1.75377308712856
O          -2.07002790438151    0.79421003658164    0.12560184824949
H          -2.22191077434247    0.27767222895335   -0.67452384225932
H          -1.63721872116959    0.14865605168756    0.74057450663021
O           1.27812474323374    1.09053128185210    1.57847499568644
H           0.57854976637203    1.85418061471611    0.50217923549029
H           0.61435038358659    0.75949130281942    2.19515395209049
H           1.55569034812796    0.28169073823621    1.08232511337335
