    19
        -40.92453837
S           1.49181122474933    0.11334593524985   -0.28818547715180
O           1.35578179933246   -0.41250196299930    1.06531436640559
O           0.92383093700894   -0.81187825829747   -1.26261075632793
O           0.95967833233195    1.45340158595685   -0.41920297204028
O           3.03811541264794    0.21475584580415   -0.59363118801539
H           3.36913804527955   -0.67263318560970   -0.48944478981496
O          -2.13825430103286   -0.02524076402673    0.38696014627135
H          -1.67582667659994   -0.96293079189302    0.38825251986173
H          -1.58678780461181    0.53301119805156    1.08054901915296
O          -0.51458162707439    1.20303389124925    1.87252030646203
H           0.24432411736546    0.57818840619825    1.75664979086296
H          -0.23489744526534    1.98973694620936    1.39007551244244
O          -0.69182166782395   -2.08668685655658    0.31266182361291
H          -0.08362499826105   -1.75686294069605   -0.39698700737245
H          -0.14927930060924   -2.05263415476872    1.10929902863014
O          -1.19001994432405    0.88784466162840   -1.76293037268251
H          -1.89245741862168    0.38325834577655   -0.54455066540984
H          -0.38501439249529    1.29497830508989   -1.35861315851083
H          -0.84011428201528    0.12981379365932   -2.24612613640452
