    19
        -40.92246913
S           0.44130783947676   -0.82846254515045    0.51419510373431
O           1.09172210103419    0.50523220003841    0.15626941806386
O          -0.45050950664183   -0.63130477857289    1.63319025887507
O          -0.15539811975379   -1.42598445860688   -0.64187199382009
O           1.64718784700728   -1.68245324892966    0.96289595647750
H           1.95870631885026   -1.23848488809570    1.79105199027790
O          -2.37633572378196    0.47021158295388    0.09510330281775
H          -1.84034510440405    0.08834054116069    0.81125273053567
H          -2.64544474182058   -0.26906073753428   -0.45589927255684
O          -0.42956186900822   -0.17717687277670   -3.00724315979198
H           0.31296305243969   -0.39770310188804   -3.57191139712376
H          -0.38176177773226   -0.77790620367116   -2.23938422650889
O           1.80679813094404   -0.03845681595978    2.97155071071029
H           2.05461016185106    0.80803683231990    2.58912165111465
H           0.84112021297123   -0.10437416961192    2.89273501786556
O          -0.49556208597796    1.78513291607355   -1.22677115511983
H          -0.49119103018277    1.24939338426482   -2.05542435944483
H          -1.32652479091698    1.52329677223859   -0.76070486465784
H           0.43821909564371    1.14172360174998   -0.45815570145197
