    19
        -40.92079034
S          -1.12844990245922   -0.55542743025610    0.79006252734332
O           0.17083942726256   -1.17004872578594    0.55481591445055
O          -1.01782290927211    0.90347278484786    0.84381189124703
O          -2.16472378409259   -0.99883831351064   -0.10656287891257
O          -1.54263677856587   -1.01538552796585    2.24688364075438
H          -2.44979769173003   -0.73490594572656    2.31691821782130
O           1.19058772282721    1.73251889290124    0.09424817206192
H           0.21169311799205    1.52966824428133    0.42865733033290
H           1.75268194962382    1.24158124914212    0.78252616865330
O          -1.43969873927433    0.13481177500083   -2.38198922495345
H          -1.87253506269033   -0.33598201222966   -3.09674435107884
H          -1.80115196944154   -0.23985886640243   -1.54977714288883
O           2.20494703227933    0.02141402031135    1.70443232945671
H           2.99874949332167   -0.47608771744375    1.49794204710949
H           1.44163932769919   -0.54586367387901    1.44268586667778
O           1.09349603900942   -0.02655563168629   -1.66933427306480
H           0.87234303845005   -0.69129577078983   -0.98590759560661
H           0.24038157521254    0.11627176225078   -2.14220176325551
H           1.23945811383313    1.11051089694084   -0.77046683618328
