    19
        -40.92453834
S           0.90404187580700   -1.22522212598429   -0.06103003968228
O           1.73315887498904   -0.08368923457144    0.30979899459209
O          -0.10328710621180   -1.48678873747782    0.96067332149987
O           0.33114120869069   -1.08882967157076   -1.38367422765895
O           1.85167580209516   -2.48781972927868   -0.11238355645049
H           2.20360396702325   -2.56816821752433    0.76927910689088
O           0.08616913100774    1.07597371946663    1.94038547304385
H           0.84997689497381    0.72729311303304    1.41366416086392
H          -0.32374311930287    0.27989394443225    2.29866710161336
O          -2.16648943987147   -0.62409438173700   -0.36588127971981
H          -1.51280753618774   -1.06551659804769    0.23211868495798
H          -1.89141695479776   -0.90366546655171   -1.24686785984284
O          -1.31763698694923    1.72761422796434   -0.04742750153660
H          -0.79953375960267    1.58879861838869    0.85009899123900
H          -1.80664962872006    0.81502745700382   -0.20415335603820
O           0.60244613293533    1.47943800592621   -1.66178515355348
H           1.40767906279781    1.57838433845873   -1.14002482401277
H           0.51954311612697    0.50079323999017   -1.77479601653924
H          -0.56787152481614    1.76057748806083   -0.77666200967008
