    19
        -40.92136369
S          -0.44622838486678   -0.76194920599382   -1.06787989521425
O           0.26925758488949   -1.37445953773069    0.06561491964174
O          -1.81299246025370   -1.21173225503912   -1.15910315601272
O          -0.29218878930782    0.67527152807619   -1.05796848586805
O           0.30717434396515   -1.28923330587630   -2.36229324797909
H          -0.15074711075595   -2.09364629596607   -2.58930794987539
O          -2.49968117415901    0.47562635041480    0.74576399274898
H          -2.45649320852902    1.30744291936210    0.26590469675684
H          -2.42047258182927   -0.22375676199820    0.05806743532034
O           2.62905891767475   -0.11275331820259   -0.14766517524728
H           1.86931183487934   -0.72046290183354   -0.07291605345775
H           2.80470308239073   -0.02233158910605   -1.08583737111115
O           1.07035465305966    1.78644593093317    0.88424192967270
H           0.55625604788115    1.65316046102478    0.05519676973273
H           1.89666632751747    1.28588243847456    0.70427549242430
O          -0.32360396547467    0.08198320084761    2.02013321802772
H          -1.26959513553856    0.29661556428368    1.69289410002742
H          -0.03967078884167   -0.66093141855798    1.37023891051983
H           0.30889078728882    0.90882820687796    1.68063985990167
