    19
        -40.92453842
S           0.42114595698841   -0.67192358146124   -1.30126899095072
O          -1.03557498711026   -0.60263867441789   -1.30701815890663
O           1.00290283383852    0.66576290649065   -1.28784345969593
O           0.93295740264846   -1.51070482829329   -0.23801831256313
O           0.85892401652665   -1.35276746578779   -2.65753498246640
H           0.50163059053896   -0.79316442603159   -3.34102019922876
O          -0.53503658818407    0.85672345367074    1.92429228350580
H          -0.80064340203622    1.43227771401168    1.09288066024775
H          -0.97040981654344   -0.07732172114083    1.73858201415586
O          -1.42354606724532   -1.37000451978275    1.14670022770182
H          -1.45574880429143   -1.15148221993291    0.18182642922119
H          -0.69605589891604   -1.99960005696643    1.21152442819633
O          -1.01391456361655    1.95353779289544   -0.29263487633265
H          -1.71482247397180    1.42852892437910   -0.69662914460474
H          -0.19246839752588    1.63097078833512   -0.74374563217539
O           1.85883158615046    0.35300262993908    1.31609134290019
H           1.66755700990847   -0.47626712498898    0.81307306870291
H           2.10030884467187    0.98367085390835    0.62729778756615
H           0.49396277811244    0.70139955528622    1.81344553459226
