    19
        -40.91836590
S          -1.33363926881283   -0.93425088867412    1.11246893412974
O          -1.70169056563194   -1.52237139654794   -0.16213033746319
O          -0.00140577399567   -1.39147582075503    1.53888535461154
O          -1.45139695896479    0.50547826843890    1.13678943368019
O          -2.34126001192440   -1.49547485491149    2.18859018534532
H          -2.28554522642977   -2.43629803261427    2.05112388024680
O           1.72728522788588   -0.93577873325911   -0.15274837463761
H           1.04457204807600   -1.18628814479511    0.63640410757147
H           2.03573492454939    0.01253739511098    0.02815215783685
O          -0.35870978935349    1.90666935838199   -0.72065816710151
H          -0.80177717598266    1.39598542311265    0.01343431729782
H          -0.85326423794990    2.72449590856612   -0.79643617283296
O           2.19174997672271    1.59271793103637    0.03543257666188
H           1.27020998805531    1.85413777024953   -0.18551092171175
H           2.76143810924824    1.96941635153899   -0.63788603932253
O          -0.02765116894890   -0.56628431574933   -1.89992040197960
H          -0.75445234182029   -1.01975761199675   -1.40232400895094
H          -0.20576912833642    0.38312539653546   -1.79469225827707
H           1.08557139364657   -0.85658398376528   -0.98897424502202
