    19
        -40.91941576
S          -1.49968595519936   -0.56865035210322    0.21413111164037
O          -1.62104368558758    0.74164999562433   -0.39862425993675
O          -0.96229272987040   -1.54564447162722   -0.74078882541782
O          -0.75439984449389   -0.54834536018855    1.45267867418507
O          -2.95397270032938   -1.06067671851324    0.56461992342987
H          -3.39652696026517   -1.03871931867540   -0.27814827716583
O           0.60521275992053    1.49757816825047   -1.66215676178904
H           0.88923031998816    1.97588557977138   -0.85885042116545
H          -0.34250784501635    1.32325943411112   -1.48086477732856
O           0.42316026328347    2.06925398461878    0.94654028239767
H           0.74734061895263    1.55949716676176    1.69187130373463
H          -0.45200191934129    1.70821270053103    0.73762039623586
O           1.80742680969983   -0.87080393228532    1.19852992948697
H           0.84335763858698   -0.75130519985281    1.40086413764129
H           2.07088889034124   -1.69447612654598    1.61302017453961
O           1.34700127829278   -0.85543427202502   -1.30986552581224
H           0.37994227420589   -1.24886909642181   -1.17520720308991
H           1.14754292188286    0.16673931952673   -1.55499987853447
H           1.72132785494097   -0.85915150096237   -0.36037000305857
