    19
        -40.92120605
S          -0.93847350006800   -0.46559204372398    0.89677607382449
O          -1.14870270801546    0.18455354396694    2.16097693974108
O          -1.40892249679369    0.32028438145228   -0.24436502182769
O           0.40919836768283   -0.96186451121603    0.67065969902152
O          -1.84835241296852   -1.77853089885653    0.89980606332128
H          -2.58994995618886   -1.54800635423057    1.45140801540022
O           1.99574902700537    0.96135226912461   -0.30150752353029
H           1.57204202272900    1.64588297075438    0.25928028629737
H           1.76962510710297    0.13010568440510    0.15696854941096
O           0.40737203809874    2.22275210846277    1.42327788473892
H           0.61317087907207    2.73932212526303    2.20527920078197
H          -0.21409485339019    1.52628601786552    1.71114106825154
O           0.29634103631120   -2.02844983314679   -1.71865727124851
H          -0.53735334284116   -2.49607422806836   -1.79540186015555
H           0.40610120445048   -1.81933449583533   -0.76237755454178
O           0.27206998069678    0.51226834329170   -2.04892344366738
H          -0.52051271878633    0.54961694470478   -1.35668825741554
H           1.09694348736046    0.79502712874170   -1.43244050723915
H           0.36774880853632   -0.48959915298352   -2.17521234117228
