    19
        -40.91892622
S          -1.15340646494893    0.76796930038728   -0.37094229907019
O          -0.96588612458283    0.33405110531620    1.02612241388131
O          -0.70111640053175    2.12883203149358   -0.56489696374017
O          -0.58987368245503   -0.19074275443886   -1.28887594513739
O          -2.71731458238882    0.76155074271215   -0.60600708884052
H          -3.02246940830819    1.57097784383075   -0.20668939720324
O          -1.21820895501609   -2.35468677511790    0.19727955950104
H          -1.26624750563563   -1.66940764315571   -0.49046329772615
H          -1.43377225095766   -1.89592123653631    1.01447886003249
O           1.33942775949079   -1.97689652453194   -0.47346356891266
H           1.00252277254056   -1.43433856362699   -1.20378590216187
H           0.53665923147826   -2.44975251336389   -0.15624662141690
O           1.86779230130155    1.93037114890389   -0.23244205238740
H           2.18010850373887    2.75892605109935    0.13773024922839
H           0.91562257418015    2.07238578726416   -0.46989361004302
O           1.46508399204918   -0.12654030256026    1.20450914755273
H           0.42940711397407    0.04764136848112    1.26265168460743
H           1.53513886233847   -0.96027936339992    0.54335370790715
H           1.79653224373121    0.68586029724317    0.67758112392539
