    19
        -40.91892633
S          -1.20217264869977   -0.22195269059720    0.75172360257105
O          -1.17971323179105   -0.46077677391592   -0.70361641567293
O          -1.00830639444812   -1.45137506491665    1.48987882686681
O          -0.30347226014599    0.84611571759491    1.11302882600541
O          -2.66582730155887    0.28475749500109    1.07110377467632
H          -3.19563994627796   -0.50699401821670    1.08385578767890
O           1.44801590119201   -2.07950336764491    0.92242894766795
H           0.54404877015081   -1.86011938188685    1.26543740399461
H           1.51535215563989   -3.03685836957397    0.93135019325132
O           1.77622665962343    1.57626602671451   -0.53823254995975
H           1.47143564697183    1.48773948113228    0.37848422382589
H           1.04270463992079    2.06873724286668   -0.97200057052197
O          -0.72808747070073    2.29689665734386   -1.12284910814636
H          -1.17385931812188    1.61906130299406   -1.63927923872168
H          -0.79315157578206    1.98919478488723   -0.20299834301279
O           1.22374110624560   -0.76066146495976   -1.23821186295400
H           1.47089225583428   -1.34276093169183   -0.43338903223519
H           0.18025948110015   -0.66808258260229   -1.13996110831541
H           1.57755354076978    0.22031594741452   -1.01675336698246
