    19
        -40.92218954
S          -0.87873990288039   -0.64011665838472   -0.39768096475722
O          -0.19680219179549   -1.69294247287668    0.35512730298369
O          -1.32614958638451    0.43660315353911    0.47996015890712
O          -0.03684766258457   -0.12374822755994   -1.47206621757109
O          -2.13448300433089   -1.30090436104796   -1.03747424179531
H          -2.54051532908004   -0.55113606562122   -1.52025082627867
O           0.36492615614037    1.04848116195833    2.34815251748962
H          -0.32134774111460    0.92292822085108    1.63869532527610
H          -0.08457681885542    0.89558391090426    3.18212720857264
O           2.45862797775158    0.14578437149733   -0.82180669421411
H           2.95815594250166   -0.41314689131625   -1.42101648334372
H           1.51852160759590    0.12736066239104   -1.14745506208901
O          -2.40968015391466    1.16163605582051   -1.92377767229175
H          -2.32004027414822    1.41591402496545   -0.99566958862069
H          -1.50231087942320    1.06266121531928   -2.24112385637105
O           1.83172804986893   -0.79235140259861    1.43604066022633
H           1.36918302313664   -0.00493137547756    1.92319139733207
H           0.99625953038809   -1.31106514567651    1.03263466000165
H           2.25409126725505   -0.38661015674199    0.58239234654755
