    19
        -40.89823212
S          -2.97601019524251    4.41939579039690   13.65071531091903
O          -4.15702702546425    4.71061144091162   14.44245177022399
O          -2.71794071273041    2.99594513861598   13.53369738753488
O          -3.01071610780289    5.08209858080614   12.34528308148496
O          -1.74169632142136    5.05473262004002   14.40631288810119
H          -1.74779625717371    4.60368881512835   15.24534198308947
O          21.80662490096206  -21.10653964966814  -68.48577505826937
H          21.05607609094512  -21.40082190383643  -67.96601357035017
H          22.46735905708275  -20.78082275454410  -67.87144057714546
O          -4.04372983923983    1.84942779179142   11.63367406055445
H          -3.38888920531409    1.45561788482903   11.05330320556291
H          -3.54414278624411    2.17585424715080   12.43137717294815
O          -6.36281427349687    4.60578990839639   13.09864502837464
H          -6.76944085140707    5.47036959938444   13.18776485183592
H          -5.58416224420536    4.60228049630573   13.72005333438154
O          -4.91400197136650    4.15243560017136   11.08387201125735
H          -4.06780389336912    4.63501470339480   11.51482908216257
H          -4.66020928780215    3.15284481842153   11.17731741941681
H          -5.64368661495039    4.32208066832148   11.79860013282500
