    19
        -40.91596546
S          -1.29748522472626   -1.06923412819546   -0.45272250752119
O          -1.27331966848315    0.39827135489831   -0.38932438304329
O          -0.30267442164103   -1.60490681700936   -1.35113090646258
O          -1.26456123739250   -1.66146196849466    0.87102419462600
O          -2.71262207004182   -1.41030705474932   -1.08094245510939
H          -2.63095234176387   -2.33783764394286   -1.27919474695500
O           0.31425781684912    1.35762192541176    1.26061744352852
H          -0.42679401120258    1.01732133334089    0.59425239408176
H           1.16461485545906    1.43759214670901    0.66538200327374
O           0.68929669359564    0.62768041939394   -2.29471829980167
H           0.48037976760512   -0.30925054815969   -2.08466521392961
H          -0.13226337004928    1.08519641416205   -2.08280680005717
O           2.23559002129754    1.44425295787914   -0.37077024249613
H           2.58629959534768    2.29799443052583   -0.63098165400973
H           1.75037543018149    1.07902547939330   -1.16945940213818
O           0.46536579330959   -0.79412930543476    2.56090635087832
H           0.04322797307072   -0.84432409173737    3.42120019273958
H          -0.14915856564798   -1.25731861716569    1.92558882557272
H           0.46042294422732    0.54381369319089    1.88774522682688
