    19
        -40.91596484
S           1.71840882686098   -0.07473162189047   -0.27278468622488
O           1.56022584337670   -1.42795550377058    0.20421654724585
O           0.64234873223321    0.33508686118835   -1.18526431823301
O           1.91839819594847    0.89588846774345    0.78622006630970
O           3.02310975666864   -0.05813259404583   -1.17374441620199
H           3.65589377527956   -0.51242142485990   -0.62649235091756
O          -0.57857225049616   -2.12331528322321   -1.13828193903971
H          -0.37874401726931   -1.45934100211485   -1.80784124809312
H           0.20503426690677   -2.08319836176645   -0.54674255302926
O          -1.37346705243431    1.27963313434736   -0.08754541652099
H          -1.92140915095278    0.40738577322989    0.06168630970792
H          -0.52401462165159    0.95411578808062   -0.61910789090642
O          -2.50113308211488   -0.96162096366123    0.17134437663775
H          -3.31469964772885   -1.13196436099629   -0.30683082235729
H          -1.79096124822363   -1.52048391843979   -0.26435986967755
O          -0.13283554869395    1.80061339070248    2.04181052982604
H           0.71161164156599    1.41052209401574    1.68090380045408
H           0.06593570648512    2.71650812692454    2.24788750786684
H          -0.98513012575661    1.55341139853764    0.83492635315051
