    19
        -40.91966065
S           1.01874715988859   -0.86808435780457   -1.06767865355283
O          -0.14225592558881   -0.67924532158725   -1.95095027130315
O           1.76936122475240    0.37064274658909   -0.93199713065622
O           0.63846673192077   -1.44497469623672    0.19786143944279
O           1.95637817725474   -1.89958199844525   -1.79902570579510
H           2.17903608112709   -1.44943731213420   -2.60809401581586
O           0.28265289875331    0.24670540473686    2.34629002750016
H           0.35594678392559    1.10808740656622    1.91956108981091
H           0.72768127292250   -0.37958156171571    1.75202203054489
O           0.19015370135511    2.06773869930428    0.15619674439553
H           0.87767886463649    1.46292278163696   -0.24893065437468
H           0.34933361924538    2.94020511126741   -0.20890940677532
O          -1.79709996618473   -1.03145778255978    1.33891068330759
H          -1.24046756960421   -0.53149625546397    1.98455960227530
H          -1.16595342412694   -1.66473995777171    0.95924650707210
O          -1.77278851704099    0.56442832261458   -0.57881594864990
H          -1.91578231837603   -0.10598915148802    0.24911285805816
H          -1.14152963823750    1.28226067883913   -0.25099160367687
H          -1.16955914662307    0.01159723364239   -1.25836758183049
