    19
        -40.91346213
S          -0.63781615638976    1.17042903455049   -1.55485260871913
O           0.81231779459692    1.61551936287747   -1.45962551932849
O          -0.79113955711742    0.11333844635382   -2.50515401938923
O          -1.17719056767214    0.91223264453298   -0.24832420462151
O          -1.34424975904542    2.45502973649163   -2.11606797587278
H          -1.13228839255614    2.50909009494646   -3.04586311778520
O          -0.23358710423035   -1.95631897771383    2.40834965059798
H          -0.35200303820403   -2.09398350070738    1.45777742426604
H           0.47349921295358   -2.53954617894518    2.68934326667755
O          -0.29484170061731   -1.63212747123662   -0.38263176248213
H          -0.43000532001433   -1.83232057038929   -1.31381913330505
H          -0.80965122565556   -0.81870979111859   -0.23382757277698
O           0.32445484153909    0.71600465327531    2.11516655884264
H           0.05237839746488   -0.16218068744156    2.44302962204922
H          -0.38838146850597    1.00914680914931    1.53102146567093
O           1.83035332804164    0.01361399980257    0.11923515477233
H           1.35243982273170    0.95841805826497   -0.79108059749523
H           1.43505865276417    0.34790735363678    0.97994039551894
H           1.31065223980285   -0.78554302640821   -0.09261703661216
