    19
        -40.91836651
S          -0.28053764872083   -1.65690543249283    1.03246419637090
O           0.14256734997968   -2.27626902951202   -0.20995676856768
O           0.82965941547506   -0.92335227641854    1.66083453725721
O          -1.46532418923995   -0.84164243423237    0.89481039803048
O          -0.63982111660187   -2.82492741669095    2.03009447372426
H           0.13184673545415   -3.38101075442974    1.98134976579366
O           1.81462649327011    0.75488889594280    0.15414682864887
H           1.46104518957998    0.04410009576670    0.87617369193408
H           1.24827916412870    1.58707034201807    0.27325519720504
O          -1.57660258994192    0.94758416573849   -0.94738834723604
H          -1.57262544112568    0.25934105058023   -0.22473697390798
H          -2.50048090303383    1.08306431973610   -1.16467840221255
O           0.12869742220343    2.70435520963875    0.13870429701927
H           0.29652914222759    3.40339569630113   -0.49605289096803
H          -0.60934070632305    2.16114133501153   -0.21721787228400
O           0.71360570878899   -0.32201665913688   -1.82012570801824
H           0.53501540572311   -1.18634518819497   -1.37026036125080
H          -0.14340625270469    0.13556101246166   -1.83461007461096
H           1.48626681061560    0.33196707793760   -0.75680600681936
