    19
        -40.91966068
S          -0.44440173989825   -0.81317114320897   -1.43981466773465
O          -0.05577273450048    0.48200733981995   -1.97630025118185
O           0.74198494808557   -1.60452527930933   -1.07882222891990
O          -1.37710135397285   -0.71917129014544   -0.34426695582443
O          -1.15346230328593   -1.60246304407166   -2.60269598777178
H          -0.49201331849061   -1.61473973376808   -3.28758070932255
O           1.19211115469194    1.70416087554793   -0.10345793261837
H           0.69839432339618    1.30869764488332   -0.87965725390317
H           1.90522186827286    2.22677689039235   -0.47516130956604
O          -0.60370769007935   -0.76891571500656    2.26518782457042
H          -1.10598680544090   -1.19545940906893    1.55166924498794
H          -0.90857012621340    0.16990809448279    2.21355174528457
O          -1.32320452144763    1.54791230036701    1.22372033512401
H          -0.53869912541312    1.99143975983019    0.88094867353862
H          -1.60865962193591    0.94010106676701    0.52188088185683
O           1.55073575138981   -0.59056550997911    1.02015923292794
H           1.28904727696738   -1.12647193569617    0.13943902068596
H           1.53898079105795    0.37086876714990    0.71007029267148
H           0.69510319667601   -0.70638966877739    1.66113004512490
