    19
        -40.92343660
S          -0.55176624424914    1.47651813264142    0.60074968026028
O          -0.03136983086611    1.92914723069799   -0.67165989159645
O          -1.87427237645476    0.86430951671234    0.46303712754388
O           0.37466056942034    0.60325188407713    1.30379820116442
O          -0.74592736584521    2.74349454784665    1.51674562324062
H          -1.37447802038598    3.26282164928933    1.02518384373408
O           2.18368755877645   -0.60508423618138   -0.21783663235038
H           1.62365517557607   -0.06477032133063    0.38226897836459
H           3.00401822564916   -0.12200289893759   -0.32613473648170
O           0.25396861572964   -0.27202112070482   -2.05701080358937
H           1.07845076968168   -0.55395154392429   -1.60833928342508
H           0.12474660846380    0.65589088798233   -1.74698609811113
O           0.05207573900682   -2.04348306001684    1.19052218199458
H           0.92109547668740   -2.24643275887705    0.82708197046782
H           0.11960962804314   -1.12009425596106    1.51118171672419
O          -1.52990499813682   -1.31988474148414   -0.66748171299140
H          -0.97735063033716   -1.78786607447043    0.06187200903871
H          -1.83306580085943   -0.43221508357194   -0.20460572352669
H          -0.81783308001712   -0.96762774370397   -1.38238645041166
