    19
        -40.92343644
S          -0.20544106819963   -1.55480468354514    0.62138980281574
O           1.24290023450126   -1.49922825058314    0.82572168847949
O          -0.92241552317818   -0.80925596867650    1.63369548153371
O          -0.57412201913961   -1.15903029198446   -0.72870159241837
O          -0.61238351271237   -3.07013286243964    0.76360391163467
H          -0.32009097500188   -3.28372723629197    1.64423753671225
O           1.95115306195090    0.81065869905340    0.24945826440733
H           1.71681473660681    0.80033477542336   -0.75125376276744
H           1.80691117139370   -0.18384032175175    0.53835622338012
O           0.97691372570940    0.53597109318867   -2.08567696732999
H           0.30043306288412    1.20351787172073   -2.24485540098355
H           0.48472510240085   -0.26213767554227   -1.80112165732045
O          -1.63038583589276    1.26566113744930   -0.96151233339525
H          -2.58519607083990    1.29651901852302   -0.88776146289134
H          -1.37915341056803    0.31860963358489   -0.88599375845531
O          -0.16334739736270    1.66520643359114    1.25350921798217
H          -0.48524542349955    0.80575157196057    1.61649616816051
H           1.13269690254482    1.30414408783956    0.72874730178201
H          -0.73476675162853    1.81578296854169    0.47166132865355
