    19
        -40.91596521
S           0.33871730301771    0.55661598177711   -1.61468881399299
O           0.81013089943743    1.08074068903313   -0.32580745389800
O           0.70518034538533   -0.82398281190104   -1.82315922062012
O          -1.07384424608682    0.81961370440468   -1.81317720317010
O           1.12813261253487    1.40691827208525   -2.69530035239483
H           0.95538110101940    0.92737470262186   -3.49935871354859
O           2.11754393740996   -1.23871845507184    0.34302409041580
H           2.29898583053847   -0.29440695008701    0.40973806794259
H           1.63996705956858   -1.31184647196878   -0.51267121961064
O          -0.71496624773195    0.69294141606245    1.59407144945967
H          -0.05704026962717    0.95155636708785    0.81336625865963
H          -0.36314355252719   -0.23158185684230    1.91805913913483
O           0.30326408088582   -1.53864296499061    2.18089774839600
H           0.76018424191647   -1.63548337783089    3.01839217741855
H           1.00784400479991   -1.55699660000082    1.46676452713078
O          -2.70486139642613    0.29632477098572    0.10182906438159
H          -2.15082554354657    0.41376044168742   -0.71972546596500
H          -1.61116573677978    0.51856127458447    1.10066512962035
H          -3.38948442377823    0.96725185837045    0.05708080063754
