    19
        -40.92071414
S          -1.38637027333699    0.51890246296684   -0.08387093955571
O          -1.00752092385776   -0.90713764133675   -0.13607708625744
O          -2.03696988064655    0.85193588749278    1.16237397658329
O          -0.25213365673348    1.35628941764521   -0.39910070514555
O          -2.45845289404086    0.71786571986931   -1.22728144957889
H          -3.28670057473005    0.51290057208552   -0.80274852246514
O           0.61283253722579   -1.53476675587933   -2.17960247454662
H           0.59964652039962   -2.48376995280176   -2.31299541900405
H          -0.10175333867843   -1.33165098823623   -1.54365672246005
O           0.24530725845885    1.16766532133740    2.40530722392614
H          -0.69475257083439    1.09021167912903    2.11647992228980
H           0.58456033109281    1.94086954518169    1.94487533728416
O           2.07701983010036    0.20817637416597   -0.79653126171969
H           1.82454711555189   -0.43354792659525   -1.49390461770218
H           1.33361711652345    0.85467124549974   -0.79786518091143
O           1.12316838598815   -0.89184391567064    1.20426282089134
H           1.70375712057276   -0.45284863611153    0.37982738596963
H           0.88931786094583   -0.10590030257079    1.82756915582460
H           0.23088002621759   -1.07802211613480    0.73293855654038
