    19
        -40.91990198
S          -0.83901857728836    1.25429576972424   -0.06038046097209
O           0.60918025998588    1.22673235643190    0.07147251630691
O          -1.32844126231239   -0.08766052318931   -0.45169189068614
O          -1.51653781693192    1.76558940515918    1.09459928875215
O          -1.16081910606898    2.19180297832043   -1.28742180368897
H          -0.49156071479600    1.99419692027446   -1.93932168424181
O           0.02134654207960    0.36678875734873    2.71183327310743
H          -0.65812284029518    0.93967917508256    2.28766239216587
H           0.85547580884596    0.82337288452480    2.56669354522172
O           1.86020742483521   -1.03107236290166   -0.33215593670788
H           1.65455288132237   -0.07784117052957   -0.18943960144521
H           1.52828668796640   -1.19461239158695   -1.23638393097392
O           0.19337004490391   -0.89005299477807   -2.45650663020305
H          -0.46592307595965   -0.59318082563995   -1.79334752645925
H          -0.24748010377526   -1.53926389298656   -3.00696845178302
O          -0.08911327159279   -1.59794023583755    1.10551522655960
H           0.83107251447293   -1.51062909229792    0.54912227276862
H          -0.01103513167545   -0.93429024492998    1.89140362832604
H          -0.74544026370773   -1.10591452213799    0.47531579388672
