    19
        -40.92136405
S           0.90372699338611   -0.75303408614343   -0.73380335086581
O           2.29749190647216   -0.39336106302331   -0.81716812525404
O           0.50779948176726   -1.14426623770605    0.63064632192224
O          -0.00056675862296    0.24108217596283   -1.26638792798000
O           0.70672433120716   -2.06218771328091   -1.61048283805605
H           1.55317200799275   -2.49852919483625   -1.57186818582490
O          -1.95637510439942    1.11089298219667    0.24475182567004
H          -2.35578421795906    0.22382133717344    0.38434329611291
H          -1.36217678632189    0.95765895133151   -0.52517233471808
O          -2.11954372884531   -1.54864367092430    0.25625845857792
H          -2.21330509989538   -1.95331942519389   -0.60782967373717
H          -1.16544382852175   -1.56634691600250    0.46023819143850
O           1.74739730042749    1.98707805036334    0.17098184618604
H           1.31775781234427    2.39550981446418   -0.58575812584514
H           2.13497728335190    1.15019947354589   -0.17238150261362
O          -0.00215792917387    1.03402061452582    1.76590099932071
H           0.23404912554965    0.07030121602523    1.50081910141132
H           0.70943295485382    1.57055039416367    1.26180780708315
H          -0.93717575360971    1.17857331731696    1.21510422721777
