    19
        -40.92079113
S           0.06660417536207    1.33035077823107   -0.65701572062735
O          -1.03398288891261    1.18658436705688    0.29798544825610
O           1.18400770931118    0.46616775138229   -0.30270162425203
O          -0.36846160480959    1.20482747750727   -2.02417079962997
O           0.61248403415850    2.80448128878526   -0.47202772253201
H          -0.08603325237106    3.34395579454789   -0.82919164955270
O           1.60888730247249    0.17563254870973    2.26921646793464
H           1.59212431223713    0.43465458964847    1.31761729815285
H           2.37506482587627   -0.38993502305537    2.38518733397175
O          -0.73936664430300   -0.74009314400955    1.82366193043159
H          -1.00200046054417    0.10079264995762    1.24469212037213
H           0.13842463354444   -0.44307820257270    2.23768799776658
O          -1.51518237796981   -1.17658761710880   -2.02613757418463
H          -1.55787187483171   -1.48243926735196   -2.93412298241256
H          -1.17858182289834   -0.25515658434831   -2.06395168566156
O           0.14697517438431   -1.98451467523765   -0.14592059533317
H          -0.44693803268395   -1.42529419513365    1.06056598222037
H          -0.54660834564417   -1.91185048548404   -0.84278760862409
H           0.75045515762149   -1.23849807148441   -0.33858662633078
