    19
        -40.92071437
S           0.77093905779029    0.99200949413597    0.78702045629443
O           2.12451640326802    1.25899491665939    0.35806949826377
O          -0.20886889717983    1.31951563508809   -0.26788346353446
O           0.56092967585532   -0.35167509681211    1.27413155048867
O           0.46412007030074    1.98452655449215    1.97742005358881
H           0.98402330036748    2.75621481591249    1.77145866430371
O          -1.28186706890093   -1.82785508264836    0.12041322545748
H          -0.63214071547252   -1.47002890316333    0.76845248347288
H          -2.05135572732856   -1.22693431264113    0.21053820552207
O           2.31552775243196   -1.04530012255682   -0.86879375856100
H           2.42942979009013   -0.14739825617021   -0.47642159811838
H           2.27638221266397   -1.64291822237283   -0.11624169335994
O          -2.69007783176577    0.43148108276797    0.23364723130890
H          -3.31290155809842    0.90074475382909   -0.32342601468294
H          -1.83079364481356    0.88855802545893    0.13897070254385
O          -0.05454604170672   -0.72643848402729   -1.72552431677274
H          -0.15407035814510    0.20186288777339   -1.29914400114630
H           0.93150407598034   -0.95708315004120   -1.53611552457021
H          -0.64075050542170   -1.33827656565793   -1.02657170062195
