    19
        -40.91120703
S          -0.78206023257706    0.82854598291642    0.40548704459326
O           0.60245066352575    0.94856597978462    0.87372039110933
O          -0.98104975152131    1.59577377478969   -0.80950158757642
O          -1.20096042585010   -0.55006142612680    0.29513055209320
O          -1.68737647686243    1.50700873447761    1.51018897962018
H          -1.60601546553905    2.43945672640988    1.33210231963186
O          -1.01192640691442   -0.88147721591129    3.03522119410806
H          -1.34643752555914   -0.03212183201320    3.32753902150035
H          -1.13384930408461   -0.89379707692118    2.07829413472791
O           0.51677354661599   -2.37432672620235   -0.50043796972754
H           0.16838016568683   -2.72925784459350   -1.32140135256151
H          -0.20585170712765   -1.83662856719551   -0.10092208367584
O           0.75528028844210    0.74666197919912   -2.53557562459144
H           0.01093783827314    1.07677024233142   -1.96468908821558
H           1.09202544023702    1.51363879968879   -3.00377297098410
O           2.03399462761702   -0.35782331243610   -0.64367082410537
H           1.66944383349604    0.06730731835550   -1.50405607165953
H           1.53440554457810    0.21220437759862    0.10992750136551
H           1.57183534759805   -1.28043993416785   -0.58358355565667
