    19
        -40.91184002
S           1.05233968740754    0.33562027635470   -0.28148043063049
O           1.66631803524653   -0.01022227904938    0.97558035838521
O           1.11684765060362   -0.76776281793338   -1.24955026572867
O          -0.31125501140283    0.82020067262838   -0.16491747749969
O           1.89321921352640    1.51979361495906   -0.90680128315412
H           2.80080430004300    1.29466995445504   -0.71949075279253
O          -0.28760959940529   -1.50924352315110    1.82085235386224
H           0.53897642720841   -0.98937212818108    1.66902179295057
H          -0.95075512966972   -0.87015344095256    2.09562017963751
O          -2.34359252656701   -0.53102172675593   -1.11674497211776
H          -1.69847275468072    0.12054691588157   -0.75189768981625
H          -2.49318757299997   -0.28437621591451   -2.03157295322951
O           0.44132748285277    3.10050407671627    1.18778812294267
H           1.01370449440496    3.49509689567697    0.52765527270875
H           0.06578226946771    2.31310036417461    0.77376569576663
O          -0.65256603011511   -2.33204569769670   -0.54238620687414
H          -0.56133957879381   -2.16308711907198    0.47614999026380
H          -1.46072506096176   -1.76782276818720   -0.83032823178747
H           0.17018368389269   -1.77442504402261   -0.93126347294734
