    19
        -40.92158931
S           0.64785917253380   -0.83637367789625    1.02867951751607
O           0.48677143976791   -0.48469345462967    2.41333817597551
O          -0.60915597351144   -1.28212492624061    0.41374558394163
O           1.28823487242618    0.17743498519599    0.20404641609805
O           1.62617925330367   -2.08233567517249    0.98056142018604
H           1.42634109224065   -2.56573819799023    1.77646751977416
O          -1.64921170841377    0.99930244790341    1.83978783068167
H          -0.87090268238259    0.54600027165816    2.21868056877658
H          -2.28911183651000    0.30442658899561    1.66850618481842
O          -0.58760424925897    1.98583730037515   -0.36932428120980
H          -1.12099384791278    1.86479351388418    0.45165918483350
H           0.28599453790124    1.62012211885439   -0.12705114158998
O           1.34301523100800   -0.32859066586882   -2.36446693317764
H           1.84315740270881    0.36051024429494   -2.80638373941382
H           1.52075527388408   -0.23195106923033   -1.39922948096350
O          -1.10815997563684   -0.06392183053722   -1.68450044901315
H          -1.00799288939121    0.90277858957048   -1.23384059618627
H          -0.23041321113416   -0.20544899922792   -2.17505698359095
H          -0.99476191162827   -0.68002756398378   -0.83561880742133
