    19
        -40.92136407
S          -0.94791522826082    0.01038525356101    1.01165016180673
O          -1.31964106235182    0.26487434951318   -0.39145714015729
O          -1.52686860683605   -1.20918186726502    1.51806047908188
O           0.48310864546855    0.10917498902016    1.19070323484436
O          -1.59170765345923    1.20804172710135    1.83159590543023
H          -2.45398285804957    0.88563364981172    2.07819761742062
O           1.98648332062160    0.60825202357335   -0.89664337167560
H           1.54114508480729    1.45496828519567   -1.12133108305709
H           1.68650634399366    0.44876804083045    0.02743126163741
O           0.10343317290036    2.49354571220794   -0.85460551982549
H          -0.55211293898671    1.77918284151707   -0.74418204851803
H           0.06756358497894    3.01312337555486   -0.04967777701573
O           0.35383160905232   -2.60909596489736    0.31509372113897
H          -0.42917770612726   -2.25696815280495    0.79614508520038
H           1.10652039597518   -2.41231560497399    0.87977370746314
O           0.34876158371693   -1.06192048851391   -1.71410057187056
H           0.42694179332143   -1.82103478065016   -1.03124257056692
H          -0.45290966197130   -0.53294903366827   -1.35011968868053
H           1.17002017119023   -0.37248435509447   -1.49529139268679
