    19
        -40.92343661
S          -0.36282263984988    1.62800572925222   -0.25231942158500
O           1.01207786423226    1.70061385278955   -0.74920071664392
O          -1.25863258375728    1.04138075840109   -1.22619685116612
O          -0.43341810969393    0.96577003967319    1.04056537034861
O          -0.82429482267334    3.11513471494398   -0.01245177448190
H          -0.73643975988821    3.50377030987214   -0.87724633856337
O          -1.36653015149685   -1.51918249854778    1.00310163042042
H          -2.31501192421877   -1.59364131663732    1.11666726936898
H          -1.15651966558361   -0.56112136490431    1.06497236410294
O           1.40142214764052   -0.85591805965397    1.70275629679682
H           0.84502067862263   -0.04965491335991    1.68466410721059
H           0.78611007773122   -1.58084286735493    1.85869534605528
O           1.87409871146046   -0.62850755689257   -0.78801501926332
H           1.85339017872782   -0.81969517505080    0.22151492403539
H           1.65151471240917    0.39171101271502   -0.84252649396176
O          -0.38422263228326   -1.40919983211619   -1.49459282510113
H           0.98420562867978   -1.07328643154221   -1.18038418037681
H          -0.77689805056586   -1.73680122525591   -0.65842442014395
H          -0.79304963955807   -0.51853515632059   -1.61157925708019
