    19
        -40.91346202
S           1.59256910690483    0.30965802012084    1.24953273723691
O           2.32237781213624    0.00953879368723   -0.04923234015895
O           1.40030120414497    1.71609893486332    1.41971120205234
O           0.40833398332020   -0.49608856583148    1.36483913558543
O           2.61589293785225   -0.19007059089663    2.33025278815767
H           3.30861139276497    0.46530981514413    2.38457016076874
O          -1.00069773144451    1.37667471462517    0.03268140931992
H          -0.59878636290220    2.18765908809264    0.35857768616635
H          -0.69304728059125    0.68967637450941    0.65094210396764
O          -2.96933134489088   -0.44174618603095   -0.81355884112895
H          -2.50496217387783    0.34126043235943   -0.48515402513311
H          -3.32357276535801   -0.21602821822583   -1.67525457499302
O          -0.72479276372421   -2.01837233507803   -0.70190945474792
H          -1.63802026361611   -1.67388550638092   -0.71486330169516
H          -0.38524806077241   -1.82483419945970    0.18276375507116
O           0.53737906325372   -0.00833881802401   -1.75385044958966
H           0.09825450313773   -0.88451949851212   -1.53218692988898
H          -0.06127633789887    0.66545169917047   -1.37795884693855
H           1.61601508157034   -0.00744394412406   -0.86990221404449
