    19
        -40.91892659
S          -0.76543948945033   -1.20974622822322    0.08216528987157
O          -1.44760205919358   -1.18135119054391    1.35802889619261
O          -1.20789235945533   -0.10310424398087   -0.78679354236547
O           0.67318998495737   -1.25442063354946    0.16881854287265
O          -1.21997678902574   -2.53143674946936   -0.65733449483681
H          -2.14926348245277   -2.60685256826266   -0.46140518595019
O           1.09517817898158   -0.46272502491129   -2.37919847677876
H           0.99846233884032   -1.04195260024779   -1.60492163142013
H           0.20316688048680   -0.15681271111997   -2.56782869618009
O          -0.52766862224231    0.98737447917340    2.45435883462823
H          -0.85000669982717    0.10054411965494    2.15028913742890
H          -1.21776456650763    1.34774484631687    3.01556780250443
O           2.19639766040861    0.96078990355280   -0.40383318377843
H           2.10418070968829    0.15820201278204    0.13395858357917
H           2.04355890286426    0.63541988194626   -1.31976264033149
O          -0.06081065040350    1.89703629740897    0.12774992704511
H           0.94935410411924    1.63250672518287   -0.08867025998632
H          -0.61350652496190    1.13491173048194   -0.34172297682415
H          -0.20355751683509    1.69387197380421    1.12053406432108
