    19
        -40.91146591
S          -0.78286851792353    0.79297486808307    0.23633680582369
O          -0.45417502874811    1.39323827244209   -1.06632885542107
O          -1.58987467695331   -0.39388942535907    0.05980513150964
O           0.40004593873037    0.58595480112166    1.04015162239516
O          -1.66283622838045    1.87289127986985    0.98141512178040
H          -2.35948638375016    2.07447861197926    0.36326202748340
O           2.65834840214768   -0.06247282451593   -0.10487882934149
H           1.91422675158984    0.28094116981928    0.44572534754824
H           2.90826057429589   -0.90536358625981    0.28130655100683
O          -1.14390500703048    0.10576605336239    3.28366723496371
H          -0.49877663668019    0.18205138360419    2.57017290188545
H          -1.69646436785221    0.88626278232340    3.21633865587797
O          -0.23926434237423   -2.08385101452716   -1.34905779807334
H          -0.85589662006750   -2.55329584910177   -1.91498924918208
H          -0.79442627804026   -1.54192978084617   -0.72544096975186
O           1.15978141133866   -0.13168781721167   -2.14050609629563
H           0.64585783712476   -1.00658638390553   -1.95745248691553
H           0.48028165803370    0.61283022099478   -1.78918423840786
H           1.91117152450113   -0.10831276186604   -1.43034287690159
