    19
        -40.92135277
S          -0.48733230356238   -0.39715546871569   -0.62607784043680
O           0.32194646548791    0.61518332839019   -1.26977467380369
O           0.34949869429674   -1.26266074196623    0.22919226902669
O          -1.58940119952171    0.17503921860759    0.14113557300778
O          -1.08694125978581   -1.30376420192234   -1.73530318617093
H          -1.81620578780000   -1.79381083365746   -1.29128116119913
O          -0.04628688742340    1.96147708807993    1.30687087100870
H           0.19161704860928    2.50970860840535    0.55345427289854
H          -0.75886952581871    1.36802444049375    0.97800029860433
O          -3.06762309915805   -1.98450030646950   -0.15624977398640
H          -2.69691197525439   -1.16717299108482    0.23085405925818
H          -3.95600352278870   -1.77060345444420   -0.45127505995554
O           2.85643440322014    0.86696092575346   -0.68108624571092
H           1.94002479548628    0.85061768757493   -1.05230505770626
H           3.35400623982828    0.20531083240179   -1.16544124055840
O           1.79309522558695    0.20984785456758    1.53880732323688
H           2.40786764002773    0.49516155677838    0.77502019673748
H           1.12274433857258    0.97842642688090    1.63440103861677
H           1.16834070976078   -0.55608996967248    1.04105832718693
