    19
        -40.91892672
S           0.34641526442576    0.35086595607148   -1.34682298524467
O           1.35114628777524    1.38842038971272   -1.25843077370472
O           0.82737125535529   -0.91262137852752   -0.75710730508749
O          -0.94251985770374    0.71282431748573   -0.81138618572837
O           0.13216254906664    0.04173700708639   -2.88277822753349
H           1.00823888549278    0.07042519886913   -3.25615064401496
O          -1.83970029955242   -1.82514654260841   -0.59555581343777
H          -0.99583827788968   -2.27052594380237   -0.71556318739746
H          -1.69871648832668   -0.93086838279229   -0.94893760384051
O          -1.81242875498738   -0.29447666611489    1.59446300616251
H          -1.81567142921409    0.46045791009819    0.98462945785461
H          -2.04611161454328   -1.05309610483214    1.01298196879559
O           1.50974813720690    1.81961287633568    1.29880601491845
H           2.41150715152894    2.08208752832213    1.49630015640332
H           1.43908678465894    1.78614672349836    0.31045584588611
O           0.67372853785621   -0.54773663635503    1.69162999668630
H          -0.38502058659965   -0.46785284163172    1.79049604836988
H           0.80058819365526   -0.81960468607357    0.68337545960992
H           1.03601426179388    0.40935128525512    1.70959476129736
