    19
        -40.92135403
S          -0.74890521759333    1.25938799099959   -0.53817250272535
O          -1.29548991788662   -0.08818003200362   -0.56095392687658
O          -0.51987704288532    1.72198075135201    0.83134381618018
O           0.42711323347168    1.41223190170444   -1.36605129665451
O          -1.87017450896881    2.19272195243932   -1.13960288611431
H          -1.43536033450421    3.03810776526544   -1.19521901352015
O           0.45101457999217   -1.85864194939361   -1.58779715538586
H           0.50031432671564   -1.75136399193959   -2.53922625416832
H          -0.28691838662622   -1.29306084410546   -1.28716683102010
O           2.12209689485139   -0.27292186698436   -0.29186659862103
H           1.70836413238030   -1.06428213362284   -0.71221876393171
H           1.68972128702079    0.47904230326713   -0.76129617359028
O          -1.03412413556388   -1.47731934120912    1.67503623492938
H          -1.25160469852136   -1.06426376625133    0.80854767678313
H          -1.77791819289289   -1.30373027097565    2.25492907851972
O           0.99629098817724    0.05392072762996    1.88800938034433
H           0.42015086940233    0.85817558494289    1.57011425951537
H           0.30346437796877   -0.68939600198009    1.94906668392629
H           1.60184175523232   -0.15240876903442    1.00252428247978
