    19
        -40.91274075
S           0.82550298453920    0.93640613339265    0.39168883941650
O          -0.39441242343772    0.63416952428275    1.16621985544334
O           1.87989654985663    0.00893090304971    0.75528524438285
O           0.56838844506321    0.99396959326666   -1.02635010895418
O           1.28547579464169    2.37007543833017    0.83689006794704
H           1.46287318279846    2.31010761033641    1.77130163766238
O          -1.06368330576865   -0.78847286301256   -2.02268655966485
H          -0.54261295158633   -1.32853360045626   -2.62108015174143
H          -0.49770396912983   -0.01529414691797   -1.78028249938938
O           1.12755302665035   -2.44466701310481    0.48329999780073
H           1.45783874900761   -2.93375835730177    1.23985126538583
H           1.53314187226472   -1.53623591892971    0.54164365536123
O          -1.51232228913573    2.74261868855750   -0.28028508009488
H          -0.80677103945574    2.51136651177433   -0.89124380638679
H          -1.42734608358771    2.11763788999143    0.44629889825114
O          -1.23408297965204   -1.55498070764525    0.37354187899269
H          -0.34455185785428   -2.07246432309264    0.45531762032851
H          -0.99516391801794   -0.61508065542043    0.79737211318311
H          -1.32201977719653   -1.33579470713936   -0.63678285792359
