    19
        -40.92071385
S           0.02806800208183   -1.40735028073847   -0.46640729593808
O           0.56605389919535   -1.64951998957150   -1.78525169591737
O           1.02898268216325   -0.78573722072249    0.42360033413519
O          -1.19850715206478   -0.64434209777449   -0.46097222917830
O          -0.28630766474586   -2.82033037933068    0.16665249904476
H           0.37603104006794   -3.39245413895669   -0.21048829976893
O           0.08390444456572    0.80352130586400   -2.56112831891798
H          -0.87775228811732    0.80083422430203   -2.54758205611504
H           0.34361789569393   -0.14198405583124   -2.45250391047973
O          -1.27348783315881    1.59362398373394    0.91444979069983
H          -1.53762937096260    0.77933783597703    0.42737000707608
H          -0.98668804998537    1.25562743306475    1.78923834427019
O           0.01789593885598    0.13450275982655    2.73171176907763
H           0.73233251123814    0.27394370104324    3.35495094830833
H           0.40002753805130   -0.34658666141165    1.97093524234894
O           0.88642371622139    1.62211879999346   -0.29422556075735
H           1.13284092865286    0.68039587955343    0.03165870616249
H           0.62108414151790    1.45858798347324   -1.27619996225302
H          -0.05689038928664    1.78581090753907    0.24419168817630
