    19
        -40.92079073
S           1.08376355938017   -0.90275604480100    0.46856649583791
O           1.96137468893499   -1.19512294778328   -0.63519320652047
O           1.21070258847757    0.47905902071405    0.93620148126124
O          -0.31069680448046   -1.25009825152344    0.23208540778691
O           1.53372155914426   -1.81427823647917    1.68155115251809
H           2.47015838294363   -1.65331514238974    1.74264081303494
O          -1.20552428333218    0.59527469193444   -1.47111330476346
H          -0.37943965606632    0.75586835888434   -1.98523320940019
H          -1.04095907691089   -0.26100963044193   -1.02668978882366
O          -2.03713429076255   -0.18418160607565    1.89394439621627
H          -1.39575022535486   -0.74705521412449    1.39922174564038
H          -2.91336399481069   -0.49206870452008    1.65358203554433
O           1.25518874451910    0.62649074417004   -2.41462978425260
H           1.61585161021154   -0.01424234179222   -1.76397770222415
H           1.54206390067051    0.32073206924637   -3.27718059926747
O          -0.88884788306326    1.76953367550786    0.70442545633104
H          -1.10098767194556    1.43433545221849   -0.28550208878523
H          -1.46797244209326    1.17968092535096    1.29361092104491
H           0.06785130453510    1.35315317190698    0.85368976881751
