    19
        -40.92135411
S          -1.47613306148144    0.06330737429254   -0.50335659212106
O          -1.03738246101573   -1.09069691927324   -1.28926911319130
O          -1.79206234348481   -0.29816610404503    0.86101731465596
O          -0.53125384927532    1.16456663306462   -0.60122618873134
O          -2.81031494755783    0.57461097589344   -1.17320986740574
H          -3.42137194020674   -0.13371383466245   -0.99542377218741
O           1.87954211023446    0.54158038243890   -1.49524761314574
H           1.89361823884230    0.58872194392028   -2.45297328327197
H           1.01976730978662    0.92503625203281   -1.20824139884589
O           0.71200853670160    1.62654463050955    1.74006459755175
H           0.10935324568286    2.05912693814293    2.34746700088162
H           0.25943281048017    1.60659768552038    0.87434440842219
O           0.53521602678115   -1.00904942524901    1.83191524641515
H          -0.42499669081450   -0.89884313992809    1.63500356261690
H           0.84383604646534   -0.08022858131443    1.95927328347980
O           1.22650138288274   -1.69075037745744   -0.44466057091233
H           1.03767939499206   -1.46499822122900    0.60774528715790
H           0.27598855704783   -1.60329832857431   -0.85535872235552
H           1.70057160389556   -0.88034787411469   -0.83786357903315
