    19
        -40.92136391
S          -1.31655185811606    0.24873830793417    0.35964785144686
O          -2.37380792740952   -0.67982339802973    0.04523174209796
O          -0.34964126732523   -0.31025729153895    1.32111221777942
O          -0.63783297351465    0.79168897042554   -0.79540849688248
O          -1.98273955258129    1.47700565825260    1.11353415610086
H          -2.73881141582059    1.09882651701318    1.55349912877242
O           1.42674369020672    1.69964421596840    1.42768599976288
H           0.92167892272922    2.51367996789007    1.38891523959732
H           0.77674612863328    0.98497022393091    1.56551734034710
O          -0.78009170569080   -1.93750318642359   -1.63430699397553
H          -0.75061353118695   -1.30258943538382   -2.35547457722764
H          -1.49272282869478   -1.61639612646922   -1.03632542293625
O           1.97144582588691    0.59540554808031   -0.93567891453325
H           1.03562772756408    0.82911348732958   -1.13308818174643
H           2.13902656703255    1.07904927866257   -0.09686172867094
O           1.24049479081851   -1.62281255959834   -0.10831533286141
H           0.53606536490201   -1.90825990096411   -0.79468689951155
H           1.71593325483810   -0.72622634611297   -0.51815438985919
H           0.65905079769209   -1.21425394120114    0.63315726238636
