    19
        -40.92011109
S          -0.37571828226021   -0.55192442009610   -0.85836869394442
O           1.04723982201121   -0.74734465322049   -0.56715047456644
O          -1.14901391772818   -0.59922698286437    0.39986388583373
O          -0.64244176134148    0.65978828842951   -1.59034346603093
O          -0.85245219230477   -1.75048735385885   -1.72303818578386
H          -0.44781466566397   -2.53522228984880   -1.29433923229664
O           0.81921496372364   -3.35689556240929   -0.47575942847550
H           1.13702221484948   -2.43950592295187   -0.35098739037193
H           1.44771565014439   -3.78970088049333   -1.05817541286088
O           1.78626341194654    0.94883581654781    1.28114315825978
H           2.28875211969849    0.43551021596437    1.91720905392609
H           1.61142265943780    0.34852041209064    0.51419013917108
O          -1.25391453006262    2.84964909874859   -0.31882402730560
H          -2.17731628331216    3.02157343416433   -0.51489499186850
H          -0.97731978780005    2.11630221663082   -0.92418035104581
O          -0.68395627486258    1.42012738456860    1.69776143593703
H           0.33398689552105    1.35978306426357    1.66985040491763
H          -0.94049283454403    2.12896895766441    0.99921009364971
H          -0.97117720745036    0.48124915670400    1.19683350282910
