    19
        -40.91990217
S           1.43812316247935    0.38232549636404   -0.26808751464331
O           0.60523368210034   -0.40176740305275   -1.16661562012188
O           0.59056473472375    1.02132928348407    0.76451310161648
O           2.52885369471861   -0.35311797878660    0.30104702955851
O           2.02605071172500    1.57061650803101   -1.12282878190955
H           1.31256026161457    1.84897327111433   -1.69317946421293
O           0.98432710999517   -2.42913161961201    0.78728196585929
H           0.80819948776837   -2.70853639121015   -0.11615777264645
H           1.70909383669510   -1.76664086352427    0.71131954290517
O          -1.96359560603454   -0.51667352513826   -0.70811242262292
H          -1.07423926624436   -0.59202653944829   -1.12661419922740
H          -2.13439790513583    0.44544761613733   -0.72640146170919
O          -1.45326547952584    2.12736197194303   -0.49193125224554
H          -1.84180925099218    2.84294257475055    0.01388116480228
H          -0.66072257727721    1.83263960848225    0.00585107658143
O          -0.88035037746635   -0.85999692533677    1.50337563087485
H          -0.28631715726293   -0.02259957064729    1.38532400482660
H          -1.49836583813917   -0.79710930935729    0.61934464069652
H          -0.20994321398727   -1.62403620428280    1.32799032152238
