    19
        -40.91966059
S           0.75099558430633    1.03244925880471   -1.14105147446281
O           1.75624384052758   -0.01270824275431   -1.02644084462250
O          -0.38735624873502    0.57321376481306   -1.95158249273578
O           0.32340131870329    1.55331191940320    0.13376935810162
O           1.40414190585915    2.21793904298650   -1.94481941022578
H           1.66920013840022    1.80290530638066   -2.75985506802616
O          -1.90267934637591    0.66677499682680    1.41782801226457
H          -1.22247186183836    0.31569508374688    2.04268117720615
H          -1.43698409622946    1.40415150096786    0.98946961497237
O           0.45000467289917   -0.11067603124453    2.33205746335950
H           0.72045024418488    0.57867274887270    1.70369464132857
H           0.68349501936206   -0.94850137791941    1.91599537621311
O           0.63907645655792   -1.97294272892469    0.18552652537934
H           1.15792410327949   -1.24838341416863   -0.27085753102978
H           0.96485514055098   -2.80225623494215   -0.16929439022047
O          -1.63776400282308   -0.94808009382575   -0.46501895795489
H          -1.20360535580343   -0.30035257377996   -1.18868293338147
H          -0.85103093758958   -1.50376532800927   -0.16013666864774
H          -1.87789657524466   -0.29744758722526    0.35671759250323
