    19
        -40.92079109
S           1.28074925991173    0.27504526122416    0.70052279320669
O           1.78937750006778   -0.95458735933544    1.25129712891407
O           1.37451574637245    0.31762846660315   -0.76009728481627
O          -0.06045876080646    0.62223930651062    1.14939295235641
O           2.20672753501156    1.44449966200565    1.22960977266524
H           3.08582910395210    1.13339910895756    1.03759117576847
O           0.32778210397548   -2.77289854378610    0.00914178140009
H           0.95528390675540   -2.14940803793373    0.43503638545937
H           0.36000523517172   -3.57930773785790    0.52747128305128
O          -1.67831534345088   -1.06859268419312   -0.12832450047553
H          -1.08691646336757   -1.85647288287093   -0.17288021901649
H          -1.27415415845650   -0.51233455829409    0.56798569404102
O          -1.28209652446376    2.46136264263989   -0.26646414710722
H          -0.76821803455643    1.92990149449003    0.38647488647545
H          -2.14138442378532    2.62316963977004    0.12811032143804
O          -0.83328797186883    0.51080440677134   -1.86175928639742
H          -1.30691806103978   -0.23275799668303   -1.26214157439167
H          -1.11402907402953    1.38768123947127   -1.43453128383961
H           0.16550843460798    0.42062859251057   -1.53643589873028
