    19
        -40.91966058
S          -1.57333518794326    0.32366531160501    0.59298960930811
O          -1.44383775146912   -1.07850452084502    1.01861853585723
O          -0.78283037024329    1.19622896493059    1.44737392429523
O          -1.28250953349960    0.48490774830437   -0.81011934765834
O          -3.08462117738232    0.70493387568010    0.81320006108657
H          -3.19970235560940    0.58791719651106    1.75123501256683
O           1.66042397877603    0.48389409321898    1.15939283427464
H           0.73754336488579    0.84067431048393    1.31230498968173
H           2.12323753013331    0.56543097126843    1.99542222855789
O           1.24492049973059    1.32775204268621   -1.52954958133112
H           1.69768396110211    1.30309544793415   -0.67874912185201
H           0.29801219559443    1.38548089104707   -1.32164356897626
O           0.45896156141623   -1.11632883088842   -2.14898062800412
H          -0.45244760358217   -0.79642641717238   -2.04361876039622
H           0.98067980277521   -0.27757099138079   -2.17439021052042
O           0.79376733498431   -1.76409165008168    0.23649231289552
H           1.30440756955815   -0.97287698454910    0.60272249794650
H          -0.19166512511056   -1.59843358491769    0.60048066246623
H           0.71131130592269   -1.59974788382292   -0.82318145025278
