    19
        -40.92007399
S          -0.82583642755596    0.78083943347405   -0.81018520683017
O          -0.07881756926559    1.30344217928454    0.35175964201771
O          -0.16541825673983    1.11374833032178   -2.05233907392534
O          -1.13746828330176   -0.61382965958645   -0.63944798636077
O          -2.20381287659272    1.56478245084435   -0.79783530274517
H          -2.00382270547081    2.38073011909710   -1.24680062641036
O           0.08570418392670   -1.96085313109776    1.25461256841823
H          -0.42509013990879   -1.77638030682077    0.43481043992385
H          -0.41567873397737   -1.45141382886978    1.93319917426895
O           1.92438703921302   -0.43426221207010   -1.87652569427885
H           1.11162145661621    0.10068483960042   -2.05568175231018
H           2.63054869623665   -0.03469200354793   -2.38918910502713
O          -1.40399834252552   -0.01692519428503    2.28887135437536
H          -0.96237500976449    0.60750121524659    1.68338785883605
H          -2.29290799733399   -0.12869391497727    1.94610334414097
O           1.82303708534137   -0.30539392824557    0.66635253945033
H           2.01957629412732   -0.46152956925080   -0.32183418239129
H           1.14809557625121    0.46950339139923    0.63973184791268
H           1.17225602070068   -1.13725821041530    0.99101017087284
