    19
        -40.91940425
S           0.88865974224421    0.56630703405625   -0.18400299168587
O           0.12576043985323    0.66994075798046   -1.41033216288311
O           0.33830846221149    1.43092395056404    0.86492044324654
O           0.97658547758230   -0.82207505846354    0.28280056770033
O           2.33839109417212    1.07025250400962   -0.43589691141756
H           2.74449589066198    0.34959176638435   -0.96197783407486
O          -2.43863558005819    0.84281470295770   -1.21293946193488
H          -2.67963603559968    1.67111004477010   -1.63322844546896
H          -1.47045506613677    0.70740306412425   -1.40998623076295
O           2.94161134036880   -1.30100057474176   -1.40881618551783
H           2.14558509830522   -1.42490628940608   -0.85630459104335
H           3.64988232102073   -1.79330901128140   -0.98705857588322
O          -1.15327385683669   -1.53266087331879    1.60145174482019
H          -0.84772930956562   -1.77686407305877    2.47763177175694
H          -0.33708176252330   -1.36809255125181    1.06053995065662
O          -2.01536489328129    0.82710447235064    1.26975083991227
H          -2.35215726070337    0.84726388804624    0.28712033488048
H          -1.83829233936872   -0.16367842544905    1.48124963283305
H          -1.01665375239307    1.19987466168229    1.17507809484693
