    19
        -40.91885159
S          -0.38093521722634    0.38916928778290    1.10059314565107
O           0.75270433674636   -0.44493279267535    1.43977909699435
O          -0.13393239834494    1.04188332626346   -0.22259567278104
O          -1.64214163160169   -0.30947137581829    1.08669881634545
O          -0.48768138112250    1.54926911749691    2.13063199616014
H           0.32134203800206    2.07504404697001    1.96765642621052
O          -2.21732763938122   -1.72619172048961   -1.00448975757563
H          -3.05462143330843   -1.39097101688996   -1.33201849911280
H          -2.07359007191470   -1.29237967454677   -0.12206559224832
O           1.49214639602384    2.79680581088513    0.89734469942788
H           1.29488639126827    3.69854732791398    0.63361275344293
H           1.05476386957699    2.21186609901233    0.24959267951772
O           1.61457646990250   -1.98718644023183   -0.43346884458693
H           1.30960708904675   -1.50066338820488    0.38245909078537
H           2.55127921095008   -1.79742415444965   -0.51962610863139
O          -0.04943421760811   -0.78102525362374   -1.88838516736287
H          -0.94886284921589   -1.24724066937958   -1.67739868473532
H          -0.08031893098467    0.07856972419796   -1.25987835556598
H           0.67753998914729   -1.36366824430500   -1.42844202199662
