    19
        -40.91836633
S          -1.29188614320570    1.35897357968720   -0.61140883413963
O          -0.11498713010803    1.90464224998928   -1.26195909421947
O          -1.67858467664335    0.07313680602855   -1.21362042547311
O          -1.16768901194980    1.27410095837485    0.82549592310669
O          -2.48445605084830    2.34685482682283   -0.91184149820224
H          -2.43987138989104    2.44053756237720   -1.85852813532233
O           0.16164100908728   -1.56113505871461   -1.19239916536361
H           0.10598531130928   -2.01400560762192   -0.28720801695103
H          -0.69272482144268   -0.91539830731249   -1.25855114803907
O           0.89622738933134    0.14269056031520    1.85814828657795
H           1.02913063675670    0.52155214016651    2.72869650791909
H           0.08400272644855    0.59412583256054    1.49388466195249
O           0.28043708940004   -2.39077399696179    1.24485220648945
H           1.02736468655405   -2.95068618177646    1.46479410483609
H           0.46667825913931   -1.50016752316694    1.61715588747588
O           1.82149569187830    0.25787610232133   -0.73905290808570
H           0.95817868476178   -0.87257640299384   -1.10142115760904
H           1.23111855366538    0.99878027298044   -1.02897060937705
H           1.80793920573903    0.29147219692252    0.23193341442074
