    19
        -40.92071427
S           0.47627924383876   -0.45569687381364    1.32714576711684
O           1.33009807481502    0.44779772322863    2.06353989982044
O          -0.84666255764008    0.14208257947448    1.05844318555436
O           1.06259932970371   -0.95724633614977    0.10570558615819
O           0.20218757892707   -1.69423473461510    2.26920484114520
H           0.24252377417145   -1.32648761456331    3.14752700999203
O          -0.21588596041873   -0.55723224891407   -2.15493212261606
H           0.39026293072646   -0.91747278023223   -1.46712349666384
H          -1.08514517032559   -0.94584937642984   -1.92185033128693
O          -2.33321138614482   -1.24681640682813   -0.69074270099446
H          -3.25209386072603   -0.98900831196293   -0.60374575106086
H          -1.85658859441893   -0.84180277893386    0.06085724028905
O           2.06993005537867    1.70478540943891   -0.11053855118412
H           2.56187944041249    1.00589059015362   -0.55160944175191
H           1.90743029686313    1.36627620628917    0.80162677485126
O          -0.33110501482669    1.59227205664553   -0.93272898924966
H          -0.67215025103719    1.14009672444300   -0.07668129876827
H           0.65235848121128    1.79603831967543   -0.70351671237817
H          -0.30270639029216    0.73660786313138   -1.62058091871118
