    19
        -40.91821018
S          -1.57994274888809    0.10373294216811   -1.19798236668296
O          -1.15644285215947   -1.26588056376501   -0.94675169208926
O          -1.87375568492471    0.79228751687942    0.07054034205949
O          -0.66750626972699    0.84143382421975   -2.03276888430637
O          -2.96157265634458    0.02108350515715   -1.95476398700384
H          -3.50960426209269   -0.44689678909773   -1.33215771276144
O           1.57843887717952    1.12487519669237   -0.74597936869790
H           0.83931418965245    1.14635045312568   -1.40072124967945
H           1.76660758697065    0.17825267976821   -0.62363394793673
O           0.97402890755852   -0.60550619629513    2.39584350647902
H           1.07324761694026   -1.08856305658734    1.54546144961231
H           1.84236496677995   -0.56704076780347    2.80120639732502
O           1.24996202981365   -1.52462707818666   -0.10374856491857
H           1.55646941895432   -2.38449443324675   -0.39637464485618
H           0.30812301264954   -1.45211203749133   -0.43630706052083
O           0.14118413614547    1.55571370731393    1.26053141672238
H           0.38648415028804    0.76803167799683    1.84840664366720
H           0.82196644668139    1.51175000860874    0.45418925856428
H          -0.78936685546479    1.29160940054086    0.79501046502581
