    19
        -40.91966059
S           1.37979890110643   -0.29365250036088   -0.97101793318376
O           0.36897581316989   -0.16349438356397   -2.03197834451775
O           1.71828549255922    1.00915818831555   -0.41948088904663
O           0.98096215874745   -1.25013876177433    0.03147189745484
O           2.67415026149601   -0.85053133671764   -1.67291328272432
H           2.88440327500613   -0.16997632268651   -2.30491760755784
O          -1.62353754708804   -1.73743686288030    0.66457077864163
H          -1.33745790500524   -1.30326617264382    1.50530041162751
H          -0.78979081710349   -2.08850233588875    0.31155776670126
O          -0.42895339452642    1.94077219576417    0.62061102684131
H           0.45684166760929    1.64285041925535    0.26137301031908
H          -0.46707466543163    2.89023177630701    0.49080232911079
O          -0.17654073153793   -0.30955187117452    2.34893718786310
H          -0.28357188885303    0.62489814808411    2.13699691713770
H           0.51597521588181   -0.63652121363624    1.75132944402699
O          -1.74286517787561    0.25815499421081   -0.82866023500166
H          -1.40183080166335    0.99478323940000   -0.22718275219227
H          -0.90675707819738    0.05946895587056   -1.45655591368835
H          -1.82101277834661   -0.61724615586924   -0.21024383179414
