    19
        -40.91940420
S           0.72777590769426    0.39976210852417    0.67214321572905
O           1.48797062099234    0.61250148693574   -0.56382435391142
O          -0.40140677364050    1.30168223318857    0.76154052870670
O           0.31098985361863   -1.00228853894036    0.78840607576631
O           1.71523666361550    0.69503550373069    1.83701483377831
H           1.25732254190612    0.33329028016271    2.62457673916283
O          -0.57528291445684   -1.92866714716400   -1.47777240424270
H          -0.31482870496507   -1.64039104678558   -0.56402835795133
H          -0.01093071345285   -2.67422603017637   -1.69298288953737
O          -1.71501869769000    1.80195873142392   -1.39973327881079
H          -1.33071621325500    1.62514506627939   -0.49681790571637
H          -1.65201167524379    2.75032320393871   -1.53162928158118
O           0.21965124437616   -0.79063155312006    3.41510767664561
H           0.62688612274296   -1.54980629622878    3.83910373779628
H           0.00699388741928   -1.05997329874262    2.50051444280507
O          -0.00407813202173    0.31807535585043   -2.50160798846928
H           0.73787629316099    0.49382384630179   -1.75064939980490
H          -0.31171510587966   -0.63251152109856   -2.25809117222547
H          -0.77471419491111    0.94689760586031   -2.20127020816424
