    19
        -40.92179450
S          -0.37317152946534    0.63133868189281   -0.62409924516938
O           0.83140369336969    0.89107239701870    0.32246207370792
O          -0.79647921516934   -0.74297236843638   -0.44331031056957
O          -1.39152800117635    1.60086636494619   -0.40095039247800
O           0.25428979074629    0.79798119850320   -2.00385515479709
H           1.15914120435736    0.30937635550453   -1.99405439470881
O           2.43509534288581   -0.44241668069707   -1.68769675105971
H           2.76703182807597   -0.00485678589155   -0.89813705688684
H           2.09991509000460   -1.32445916952066   -1.38849878360552
O          -2.30395105378069   -0.14811890706427    1.72366146267117
H          -1.82298183220260   -0.57128070989347    0.99231482660802
H          -3.01223409304529    0.34929480754309    1.30648765555003
O           1.13972615571994   -2.54162803552550   -0.75628642766420
H           0.81510434514243   -3.24246487459097   -1.32488688318838
H           0.36879019366642   -1.97509507951340   -0.54769174182509
O          -0.50012467764285    1.71776289930103    2.31250429761578
H          -0.93568771058169    2.46890149843338    1.89778750417780
H          -1.17256682355643    0.99379510698545    2.31523630699887
H           0.43822730263960    1.23290328100297    1.19901300462984
