    19
        -40.91892667
S           1.42967458707516   -0.08570804308836    0.07589330997462
O           0.77502401216534    1.19701229523397   -0.24306344141578
O           1.76370375126966   -0.17066532180873    1.48134462912468
O           0.66186294418593   -1.19673269315250   -0.42933064438253
O           2.79337204855876   -0.07113536463494   -0.72466326120713
H           3.37113421281527    0.47744044165999   -0.20227518755204
O          -0.18669774880510    0.08096481491598   -2.65167111835587
H           0.33424125002157   -0.49964177708248   -2.07202456881180
H           0.06078282068579    0.97255486760510   -2.38975272440274
O          -0.56769175590526   -0.26863457868983    2.62342130647855
H           0.35340286761274   -0.33529382339025    2.26257201249283
H          -0.49147192681740    0.15278604350791    3.48229654258464
O          -2.01763891005145   -0.93000289529347   -0.98938845196240
H          -1.64418368028102   -0.55408421695185   -1.81863305650912
H          -1.31238750232958   -1.51842253775192   -0.67626986128755
O          -1.54025037666571    0.93452289495413    0.60762636035342
H          -1.30963833323352    0.47219323791673    1.49128357360837
H          -0.59132028927893    1.17514448497464    0.22245593136543
H          -1.88191798098476    0.16770217112567   -0.04982134021850
