    19
        -40.91892663
S          -0.43183460768810   -1.09755125933151   -0.81721432366983
O           0.54048610099768   -1.31378875669404    0.27063193242774
O          -1.77677918113608   -1.42094121487269   -0.39233004175164
O          -0.28099252474346    0.21670067047382   -1.39080999927843
O          -0.03880080687587   -2.13571404969247   -1.94331015363549
H          -0.39470155115638   -2.96482566865778   -1.63729173436098
O           2.40261496681425    0.30763965261309   -1.10013094469892
H           2.49365583541337   -0.44188908965502   -0.50454034636339
H           1.52930930655511    0.19180447528346   -1.51054120621970
O           0.93566782076370    2.24384484310775    0.01344991295392
H           0.25145481538223    2.00301141599093   -0.63125771117224
H           1.73728121251396    1.78812079289234   -0.32988351302707
O          -2.28236211362450    0.41044805672327    1.37960457459167
H          -2.87473530722855    0.03144529478562    2.03265065807140
H          -2.20646651905625   -0.25729295738335    0.65064733746998
O           0.21735303432360    0.62683041781309    1.78126488083739
H           0.54656573256987    1.40810959221758    1.13502011088448
H          -0.80571428673827    0.64911480885815    1.75878235716556
H           0.43799807237441   -0.24506701354640    1.23525821910265
