    19
        -40.92079105
S          -0.96037964829397   -1.08768030907728   -0.32021087687134
O           0.13828133056386   -1.49750529054392    0.55656417082622
O          -1.25779175658281    0.32891004975417   -0.16038680476339
O          -0.76047108385560   -1.49945816705760   -1.68573944495963
O          -2.24604739251278   -1.84079445837554    0.21333678233003
H          -2.08051327728708   -2.74932823252356   -0.01848961837911
O          -0.99678047301220    1.26973230655693    2.27421276671958
H          -1.29452362881523    0.89368462105482    1.41235969017192
H          -1.23236176072125    2.19959306914692    2.26271571637044
O           1.57029324087822   -0.40223930488612   -2.27432847559882
H           1.63661033193298   -0.34709321659074   -3.22953568703444
H           0.74623080094950   -0.90182215966018   -2.08614117541791
O           1.31722498726582    0.42153994904965    1.58365190307467
H           0.92190896615598   -0.48429111967753    1.21786880489903
H           0.51916474583829    0.81607526993431    2.07133942741917
O           1.05561279298597    1.57506138007047   -0.60992578324781
H           0.10336708889760    1.34909641101670   -0.60948025616796
H           1.37806550924499    0.99142937175360    0.68378033245007
H           1.44210923634719    0.96508984022703   -1.28159147185255
