    19
        -40.91836652
S          -0.46005623964963    1.30248013736130    1.40816898950561
O           0.93584946203205    0.93042854762375    1.38862705869341
O          -0.86056674942947    2.10436455374181    0.26669345191149
O          -1.34421999723650    0.13750347448354    1.57007369963374
O          -0.68125752620513    2.18920503161134    2.69383210392863
H          -1.57621794253869    2.49444954500533    2.58065666866801
O           0.76016417725927   -2.55454146292817   -0.49567407980778
H           1.32188497298561   -1.74849207064721   -0.53047893633642
H           0.94198764583229   -3.05984732706003   -1.29025646519454
O           1.93401243880011   -0.15708070053975   -0.71567278467220
H           1.58358199391785    0.26767827421581    0.11668764148016
H           2.87251717074499    0.03844069261024   -0.72536604216769
O          -1.45832490427160   -1.24292715811765   -0.46444332454801
H          -0.67444333153899   -1.88202078919717   -0.39714437108769
H          -1.48316057597832   -0.69973848184935    0.46042507112999
O          -0.47331446410859    0.61512226894063   -1.82316707445215
H           0.47746558148440    0.43956194360221   -1.72686981449543
H          -1.14581045932769   -0.50314514408407   -1.15160774070720
H          -0.67009126286332    1.32855865526225   -1.16448406143401
