    19
        -40.91062396
S           1.19231403825202    0.29847486851613    0.84259122818240
O           2.17730234420066   -0.74543122904426    1.00051016753265
O           1.12762830602198    0.76390628631654   -0.55914358373159
O          -0.12078619510354   -0.07792082882473    1.32010459147369
O           1.65048791542381    1.54250431623787    1.68309874734674
H           2.50989338096841    1.78236572372037    1.34678156937899
O           0.57634368470098   -2.54683827802357    0.01680411350628
H          -0.01933899989216   -2.66636302925021    0.76156419565596
H           1.32376505958785   -2.00543467765214    0.37405768221708
O          -2.19960836318415    0.08049887079943   -0.20966227993444
H          -1.49992778500617    0.13429015042383    0.49230436270258
H          -2.96830851360197   -0.33041064238795    0.18935411713216
O          -0.87055324472727    2.72487648124989   -0.64375537084977
H          -0.07093396788026    2.18392538036878   -0.64454340291913
H          -1.60939835760886    2.11106508005191   -0.61289842114632
O          -0.32946157109793   -0.88144498625660   -1.66245004335550
H          -0.01037161931293   -1.68475041522324   -1.09085366763987
H          -1.20981402325553   -0.56589180068217   -1.26431696597630
H           0.35076793151991   -0.11742126032769   -1.33954703958255
