    19
        -40.91833236
S           0.92256670473181    1.39373580095783    0.42817264532535
O           1.76417289075000    1.68115630411255   -0.70660073487622
O          -0.49042512957239    1.69931037252915    0.15472223953014
O           1.07655890115415    0.05771740387266    0.96921804291246
O           1.35647793827118    2.38622936665614    1.58422270967267
H           1.47142319740022    3.21480062515796    1.12888119301005
O          -1.08785046394669   -1.34779651934203   -1.83203788696742
H          -0.10880584044748   -1.15983162093435   -1.79111848655121
H          -1.38744444123236   -1.00509484086436   -2.67613088056798
O          -0.81145341842643   -1.30428402710680    2.10682718778962
H          -0.56261481569423   -2.22678881244164    2.01942910145270
H          -0.01936353316053   -0.77323754954519    1.83606274355891
O           1.45485442140254   -0.75392695785185   -1.65337517269175
H           1.61287400596877    0.20023906547826   -1.48923166169488
H           1.79174516121404   -1.18097726117324   -0.86048462928473
O          -2.06562328598321   -0.18243097504658    0.20191092079107
H          -1.44527238473508    0.69899967538092    0.19830134092504
H          -1.75193620108246   -0.69681880475801   -0.63382232327034
H          -1.71988371647763   -0.70100125501125    1.01505364098091
