    19
        -40.92079115
S           0.62551314115739   -1.34089231843350   -0.13237562734008
O          -0.19593076705348   -0.94493780129639   -1.27801275019552
O           1.17479326204962   -0.17525886357851    0.54609859041992
O          -0.05001843336750   -2.26847146304677    0.73776523316904
O           1.88020038478933   -2.09298684674108   -0.73696806775178
H           1.51310820598202   -2.90945396664541   -1.06132061243327
O          -2.24264753995460   -0.93394140346374    1.36864306398080
H          -2.60133540626644   -1.31877264260188    2.17059041053142
H          -1.49094372096416   -1.50681174297729    1.10321925494024
O          -0.93328574932743    1.34303278565069    1.14424063372145
H          -0.07722337860429    0.87240342514448    1.20309403831707
H          -1.60140104083656    0.63537626468248    1.30191880315603
O           1.84755708783646    1.82123888023704   -1.01590482398515
H           1.79453223209496    1.01730279924252   -0.44681620606979
H           2.21329839228843    2.51953751429696   -0.46919749543949
O          -0.66998052249761    1.48367569053873   -1.33048021710363
H           0.29295369106407    1.80165309459549   -1.37407733287275
H          -0.55906341810164    0.44040365725675   -1.43390744539847
H          -0.92012642029675    1.55690293712522   -0.29650943964200
