    19
        -40.92048062
S           0.59196480182596    0.26914869124697    1.46686422203739
O           1.59120694765736   -0.69166679808088    1.05111107693078
O           0.50411833861953    1.38609600954577    0.51354715569647
O          -0.71646264746322   -0.30224176918497    1.71101137613019
O           1.09902046424391    0.88280439344181    2.83447580926863
H           2.04641132727180    0.80092365444821    2.77682335634376
O          -1.94655478178056    1.01115552114733   -0.30374294476491
H          -2.26869107990121    0.55276683317180    0.48240345471476
H          -1.07429737250930    1.36844613440970   -0.00653363145073
O          -0.91593753290479   -0.71022922310085   -1.83416778014644
H          -1.47604275936557   -0.01808424403341   -1.28449542209412
H          -0.03859358713521   -0.20912278720225   -2.02299790534680
O           1.19769644398387    0.68999335232658   -1.89472947989871
H           1.10028490208125    0.96464750538774   -0.94723446633894
H           1.22222392219943    1.49847975276710   -2.41096212253699
O          -0.23363373380442   -2.24345919600598    0.02015574883167
H          -0.65018143306058   -1.46501228563037   -1.13055424615673
H           0.68456410406464   -1.96136593942288    0.21986398857698
H          -0.71709630402289   -1.82327961523173    0.75916179020180
