    19
        -40.91893425
S          -1.25881321939821    1.10228870783864   -0.46394233865953
O          -1.28946166101144    0.49265396383313    0.85091854879918
O          -0.63297458404416    2.39901747350951   -0.52226933568300
O          -0.70604171551191    0.17535168548337   -1.46335530193897
O          -2.77557864965774    1.31607912399554   -0.87966901897680
H          -2.72520158923536    2.02292902439542   -1.51586091294133
O          -0.75765147569852   -1.98514068374215    1.38890371117881
H          -1.00516231212736   -1.02809496941630    1.30380916878073
H          -1.58116761544524   -2.47628872064559    1.40356459617150
O           1.31194387069405    1.45822944364173    0.99215882597101
H           0.72279569556033    1.95777070072693    0.39076030982307
H           0.72065941590517    1.11527154879327    1.66897874482761
O           2.62120298639878   -0.48517653958411   -0.18334170938486
H           2.20389326952539    0.26445821591192    0.32092562566947
H           3.04924212049104   -0.08864486325216   -0.94470083812083
O           0.55743748242701   -1.82054740519466   -0.77576264590307
H          -0.01741252068144   -0.99657735419334   -1.14487736364867
H           1.46477131333337   -1.37966386815863   -0.53900150029706
H           0.09751916847535   -2.04391549394449    0.11276145433604
