    19
        -40.92044671
S           0.11179845088136    0.22959835798455   -1.57575642647624
O          -1.01939495286319   -0.67243641751493   -1.37239282808541
O          -0.22485602956572    1.59528378236082   -1.22387147244052
O           1.30562657639272   -0.26018210516240   -0.90824475897983
O           0.44168269341591    0.22979603433741   -3.12378943710709
H          -0.19171776534632    0.84065466036286   -3.48828827827917
O           1.76707287761281    0.91610272168360    1.34740398387360
H           2.65023111962347    0.66890592828137    1.62813424583684
H           1.66387890783695    0.59683574258783    0.41310653967491
O          -1.94768676423039    0.96279721493541    0.59448055645403
H          -2.30302469162238    0.25130094307836    0.04514076629734
H          -1.32282355169416    1.42372806731545   -0.02277583381509
O          -0.06331521578347   -2.15561977335835    0.50766855196966
H           0.85769526791414   -2.12059799473702    0.22446492569896
H          -0.54588798646571   -1.74079760849232   -0.25566140911912
O          -0.35549599097196   -0.23753235402489    2.11346714535947
H           0.51876966601737    0.27787779985607    1.95668221547700
H          -1.08909379451660    0.31476337627890    1.58744932107929
H          -0.25345880663628   -1.12047837577116    1.55278220258346
