    19
        -40.92079114
S           0.63020316856074   -0.19812575679429   -1.33126344994606
O          -0.06437128203840   -1.37946056181319   -0.81561395826244
O           0.03736445188364    1.02637037916519   -0.81146382152248
O           2.05849375473337   -0.28029790145064   -1.16530658727089
O           0.34009767468903   -0.16763534270648   -2.88679180408303
H           0.84681042855511   -0.90185610389219   -3.21938288316123
O          -2.56583816709541    0.97423210649040   -0.49297610684579
H          -2.84476407588338    1.83146073488931   -0.16483674786486
H          -1.63323837331083    1.07915363260781   -0.79641816948174
O          -1.62184280089182   -0.85034262056013    1.03394122735386
H          -0.99774839105868   -1.22412550617224    0.27102880384933
H          -2.21643903668057   -0.20707172929142    0.52130525544690
O           2.30429453463976   -0.63740784678369    1.44162369197707
H           2.27063805573478   -0.59176337151584    0.46143498749610
H           3.19658919093605   -0.38814671342112    1.68974098159950
O           0.10378831982400    0.75725734718991    1.83998871134788
H           0.93555175147246    0.23514546384004    1.92976733951339
H           0.16262748535838    1.13725846583897    0.94001837848125
H          -0.94221669942134   -0.21464466558056    1.55520415139170
