    19
        -40.92343664
S          -0.70709875367599   -1.04914787582754    1.11600141924063
O          -1.44151170802955   -1.44628460806201   -0.06630067026999
O           0.62435584472041   -1.65532459890469    1.16086013454300
O          -0.64632160688833    0.39510763726274    1.27594843090737
O          -1.48543894712915   -1.59982855680757    2.37016939057248
H          -1.47716712460572   -2.54081314529635    2.22542614988913
O           1.53475814487415    1.72669885927895    0.50762224090329
H           1.09264273662626    2.31788329700365   -0.11166146860809
H           0.81470164439342    1.33777468796744    1.04657189561428
O           1.97544006998227   -0.52624907219761   -0.59123108842308
H           1.98492810797359    0.42178246542242   -0.19413764314728
H           1.53611163891095   -1.09776372079411    0.16592702967204
O          -1.01241875461959    1.80884688820661   -0.94097553025225
H          -1.01803282212534    1.31990414625324   -0.08850156729519
H          -1.92257253330161    2.05100100075940   -1.11695269973022
O          -0.04927846947795   -0.44464439566216   -2.04138680763493
H           1.20909457653829   -0.51506637010811   -1.33686982400035
H          -0.64151494909166   -0.97738617167621   -1.45869705838242
H          -0.37067709503386    0.47350952318624   -1.92181234358314
