    19
        -40.92136402
S          -1.17489391642563    0.01397596206290   -0.73497596971535
O          -1.18825250524318   -0.15330320744339    0.72900295099067
O          -1.79273618564842    1.24886221979098   -1.14992262888528
O           0.15399073544864   -0.19404902854960   -1.26462447579052
O          -2.07551010105508   -1.16898435044257   -1.29244853479351
H          -2.95231159073123   -0.79745282345125   -1.33071773332846
O           0.17412651910179   -2.45636301411186    0.94276699102017
H          -0.09547897977250   -3.00159103983376    0.20166790802938
H          -0.44520487443552   -1.70254971915216    0.96235916257013
O           2.11098445573938   -0.70887044816327    0.39936983668724
H           1.69009697424065   -1.51187269979024    0.77861492006770
H           1.59366571203649   -0.56755634684743   -0.42639013746743
O           0.41204757850958    2.56102969450614   -0.54846381523647
H           0.98190664093159    2.28590355761831   -1.27209379043743
H          -0.48742477143767    2.24575377555271   -0.79348154337233
O           0.83802054490401    1.10654160276006    1.50474276486452
H          -0.05951301522902    0.62133466884668    1.38815873818774
H           1.53431555735095    0.35099556493944    1.12590976325471
H           0.78217122171701    1.82819565170644    0.78052556335371
