    19
        -40.91836654
S          -1.55560114898673    1.16439338620900   -0.33974392942294
O          -1.47614415912520    0.56116885112072   -1.65734439557981
O          -1.95238826796753    0.17172881512265    0.67146063243643
O          -0.35931661955725    1.88092805856330    0.03815229914855
O          -2.72760012224174    2.21928708700519   -0.38607259830688
H          -3.44659259240278    1.71126719355824   -0.74938706230765
O          -0.45908885525375   -1.78438955036998    0.70142652343753
H          -1.16975756115948   -0.98204792435958    0.75398821517330
H           0.30563481739369   -1.52697802339960    1.31484711365239
O           1.67169272921641   -0.96957624414433    1.90126058857847
H           2.41712914530833   -1.57292676828146    1.89768899334020
H           1.86435701973895   -0.26743201277947    1.24078775974139
O           1.92976473187643    0.72753449188601   -0.15517547609528
H           2.59038259476660    1.41213675866536   -0.27351428894835
H           1.06012538056051    1.20989671105822   -0.07164549314245
O           0.46514734483198   -1.15763683385870   -1.53953681542125
H          -0.07014186534282   -1.67683245768413   -0.27525567013077
H          -0.28133044943773   -0.55423571157193   -1.78457987625382
H           1.19372789779681   -0.56628581677828   -1.28735652988574
