    19
        -40.92071443
S          -0.53509971365352    1.11614185021673   -0.81483695722498
O          -0.79876264719434    0.91084343700377    0.62320903283246
O           0.34174595408230    2.24204775916725   -1.04072496905928
O          -0.08646747449353   -0.11272880432794   -1.42789590361557
O          -1.93049284112216    1.48838422544141   -1.45595993358732
H          -1.97401215667446    2.43665278313608   -1.37184112886992
O           0.27729969518158   -2.21576893303225    0.10468514769530
H           0.12657686920082   -1.63484245757110   -0.67651723196762
H          -0.60437400365889   -2.26079108878005    0.53120002234579
O          -2.02032246017499   -1.40979037688288    1.18691457107652
H          -2.41080493587377   -1.35939806600821    2.06062986372607
H          -1.72850949742719   -0.50491111739953    0.95829332243794
O           2.48747173841882    0.80695085729089   -0.60522085089865
H           2.44872876959502    0.21013285153428   -1.35836972023844
H           1.80943622834820    1.49861586541800   -0.79211688597386
O           1.28296151587247   -0.31494432755515    1.32988943405364
H           0.94694864145670   -1.25974905960964    0.88035363842714
H           1.92848661141501    0.10365445264625    0.64492451069783
H           0.43918970674407    0.25950014932442    1.22338403815115
