    19
        -40.91836654
S          -0.87992073980908    0.27094437716912   -1.74410292561483
O          -1.04878294915140   -1.05741798681338   -1.20152682085510
O          -1.59841765899525    1.29278007709904   -1.00514804214962
O           0.53799839367030    0.63212646979985   -1.90011001025242
O          -1.47955859524696    0.25089634352270   -3.20305525771621
H          -1.44971129902350    1.17021670258145   -3.44998742378771
O          -0.64415991077823   -1.47197748527773    1.30294566952729
H          -1.17378245200888   -2.22819501116478    1.56122270767043
H          -0.81590206345877   -1.34886507987458    0.32771113593151
O           1.63370689605228    1.07250394203831    0.25919635939717
H           1.94296044451294    0.16621563723963    0.59136232907333
H           1.24143198299927    0.91353697190104   -0.72683687696960
O           2.02623548092859   -1.25769124745115    1.28862354537438
H           2.34125632108644   -1.27247711198867    2.19433027253914
H           1.07169628661814   -1.49122795371374    1.31008554083586
O          -0.59143348358958    1.28557704345842    1.38712505859222
H          -0.76790006126960    0.36333679535425    1.63721819467171
H           0.76123057136894    1.28196398137275    0.81778433717455
H          -1.10694716391313    1.42775353475903    0.55316219655305
