    19
        -40.91889821
S          -0.22200775178822   -1.47216353066651    0.15303329597915
O          -0.22392231964593   -0.44118822664706    1.21314895547064
O          -1.57182321482648   -1.76566245806130   -0.28241687947964
O           0.69007775042599   -1.11980055633562   -0.90209990892457
O           0.31846540008032   -2.78673001981945    0.84399669280862
H          -0.46923554322014   -3.18149056202852    1.20571247424948
O           2.19400204319390    0.68479349671027    1.53725307722823
H           1.37451598593085    0.15199977361687    1.51629503383375
H           2.21649022330426    1.11967750201576    2.39081809834843
O           1.61554753183679    1.32138140493853   -0.98542628289712
H           1.42533846558552    0.37396550978793   -1.19157981432791
H           2.11651539416781    1.27268738020133   -0.14319999079053
O          -2.19038016015054    0.36386863088506   -1.64028490667242
H          -3.14486820971812    0.45846493298166   -1.60939262369029
H          -1.98368368911797   -0.51760165700285   -1.23861573816158
O          -0.65243246863633    1.67266304264066   -0.08901058577006
H          -0.55660656859627    0.89298645691038    0.57027069061570
H           0.36431428498064    1.66430240083862   -0.56089169143079
H          -1.30030713380833    1.30784648900990   -0.78760990639588
