    19
        -40.92079085
S          -0.50800785800284   -1.20744827039675   -0.70058497735375
O          -1.17407032039947   -0.45603858004199    0.35416838473805
O           0.31459231794262   -0.32888820446813   -1.53466760327059
O           0.21382197380763   -2.36441706565335   -0.23775392431339
O          -1.67554026863192   -1.72480570951216   -1.63570790656818
H          -1.22946049393838   -2.30489418325773   -2.24492578697877
O          -1.95923593505471    1.95697122969486   -0.30873383179147
H          -2.39964753948087    2.34799958292330    0.44849511211799
H          -1.85836464062196    0.99609858238277   -0.11009136549312
O           2.26832938230260   -1.26677833673078    1.01102534206116
H           2.63318313771663   -1.92133353991221    1.60954106137629
H           1.57516552161844   -1.72835491216282    0.49114788905982
O           0.58681590083801    1.93467957734104   -0.57128593696576
H          -0.39715699335758    2.18192459215824   -0.54398046151850
H           0.56633386133516    1.01939836996820   -1.09410046027779
O           0.78115924368049    0.81445615561785    1.64689094699814
H           0.79634934445418    1.59562458813791    0.41785726881624
H          -0.03458534031009    0.30830841706428    1.45700654997810
H           1.50031869614837    0.14749772679700    1.54569968936703
