    19
        -40.91984726
S          -1.07389110536011   -0.13892180237232   -0.10125492254775
O          -0.68661157198854    1.17464882814430    0.45163954719572
O          -0.29420769733659   -0.40923428690916   -1.31421091035548
O          -0.94602859385673   -1.18460885732075    0.88114146578555
O          -2.56667580468716   -0.03537489673093   -0.51179201811859
H          -2.55974808711165    0.51526541752745   -1.32479674303805
O           2.20143053694564   -0.37093056035169   -0.55707164350579
H           1.27699116686658   -0.49417175253064   -0.89179554168944
H           2.68961819838642    0.04798330881000   -1.26910648372912
O          -1.89197527159482    1.03529934564511   -2.81896202442735
H          -2.19866508304046    0.54129450425839   -3.58287648421596
H          -1.10719930154692    0.56327997900801   -2.47516030303230
O           0.71405119377257   -1.04286504624652    2.88603426437024
H          -0.03302648682392   -1.16461803446109    2.24973112840116
H           1.24146144431154   -1.84281707003055    2.82963140239013
O           1.49878629649563    0.94949563572907    1.51752429292975
H           0.49922800731266    1.16715557590906    1.08410774102079
H           1.28623395979234    0.21740960536349    2.20525315144625
H           1.95022819944764    0.47171011657154    0.74196408111422
