    19
        -40.92120603
S           1.34039354505044    0.29361172160322   -0.13875664068777
O           1.81367197600935    1.13353874920754   -1.20433288262905
O           0.57979538762993    1.02071907602481    0.87808289182777
O           0.63652945060790   -0.90655398066855   -0.56038462234060
O           2.63386122254182   -0.25316608253638    0.62263491401792
H           3.27964376360150    0.43828203891241    0.51224275647088
O          -1.95150244417319   -0.40063113253302   -1.01539805136075
H          -1.75021167168244    0.47944290942483   -1.39928618295377
H          -1.10177045095122   -0.87420199251957   -1.09313179466297
O          -0.68898698630696    1.78547586733641   -1.86256314809033
H          -0.67126232074110    2.20999594449363   -2.72285808803038
H           0.24234894636912    1.61859911114408   -1.62012167757740
O          -0.02368267612580   -2.07361624939412    1.68927438554803
H           0.71626031898850   -1.99265155266615    2.29394465758198
H           0.31888645204826   -1.81906143419667    0.80153906865766
O          -1.57911475496004   -0.05423104682876    1.42759168366932
H          -1.91527621829234   -0.19860942370618    0.42446686903634
H          -1.16146508371293   -0.93858700216389    1.69610758794075
H          -0.71811844579075    0.53164446834776    1.27094827342483
