    19
        -40.91833223
S           1.54018607260768   -0.33433819485516   -0.70669409227471
O           1.64739868590842    0.52199345513054   -1.86152520142069
O           1.62757185593652    0.42589700033557    0.54996572060209
O           0.38543091362652   -1.21074782385013   -0.71152317670408
O           2.80905440336829   -1.28269164987302   -0.71973692608551
H           3.51873298960796   -0.69446583164250   -0.95931964170133
O          -0.95738679997426    0.88933015772790   -1.91759391920470
H          -1.15537669109216   -0.04896539018947   -1.98723313505380
H           0.01937710992757    0.92740633773556   -1.99764081728726
O          -1.82471432924311    1.69388547959772    0.41773061466857
H          -1.70399485448561    2.64495174155715    0.43950004537854
H          -1.53768305743292    1.40115099077576   -0.49160963254441
O          -0.87698967270455   -2.01177887283202    1.40441460331960
H          -0.34059659296710   -1.87466234491422    0.58204108982926
H          -1.76511062817003   -2.23207226840386    1.11602056197663
O          -0.33961966262470    0.39552064592473    2.01745384833737
H          -0.62677091462820   -0.58438817770871    1.93403094391491
H           0.57476339615352    0.42706014489752    1.44791617447281
H          -0.99427223381237    0.94691457058755    1.44380292977396
