    19
        -40.91120467
S           1.01642021907105    0.53976700787576    0.36976164454443
O           1.12063492587258   -0.29795748020039   -0.82986801877216
O           0.71403451851079    1.91211276878118    0.01024618136615
O           0.10837694252127   -0.01672410638706    1.34619730316767
O           2.45478844134380    0.55602498583788    1.02562472776147
H           2.95692479436013    1.13731678363329    0.46202818187351
O          -1.46363029655001    1.87085759664979   -1.39161765650468
H          -1.35565534845165    2.50169344554246   -2.10661592383768
H          -0.67197637126522    1.98569851539947   -0.80045839675872
O          -2.06284759882693   -1.26353342447622    0.54247097319637
H          -1.25839860152071   -0.91899692830208    0.99501651726734
H          -2.80342560077284   -0.75612459688423    0.88216611939748
O           1.77789694104414   -2.17943400610192    1.77545855762309
H           1.12059453958954   -1.47466330408796    1.72730737388055
H           2.62942978945331   -1.73940698961272    1.77030097927515
O          -1.14856475139289   -0.62327341597162   -1.72573784731332
H          -1.62187524947115   -1.01106141946527   -0.89291047821892
H          -1.39133878384824    0.37453375831147   -1.72921884099304
H          -0.12138849967563   -0.59682918056219   -1.43015140695877
