    19
        -40.92343668
S          -1.18893615780003   -0.73816862003768   -0.94158717601078
O          -0.03411641688870   -1.02573408658587   -1.76536881892292
O          -1.29599627183973   -1.66090246331933    0.18954867572581
O          -1.23469828411257    0.64983094124005   -0.50970508354875
O          -2.47434002929279   -0.96907012489758   -1.82273734446719
H          -2.40316074774527   -1.88841379623772   -2.05978645321152
O           1.09328179076273    1.92619803514743   -0.52350592771760
H           0.20415070028402    1.52578508209628   -0.64529127984912
H           1.29905722276735    2.37622282230052   -1.34397899861373
O           0.52576881994427   -1.06229803148514    1.76800159734037
H          -0.27006843241099   -1.43870807570812    1.20367028924245
H           0.20595937431294   -0.12006524811407    2.02501010030611
O          -0.38431884097787    1.30904139732944    1.93246888394419
H          -0.94540057861465    1.16306510992851    1.14248444943655
H           0.28455852633174    1.94286242971326    1.65091859712709
O           1.99981553668910   -0.57931624620907   -0.18218542139427
H           1.38281142400600   -0.89322252507982   -0.88563146069781
H           1.95737987072465    0.39716724384756   -0.25519764074539
H           1.27825251386618   -0.91427387394849    1.02287301207954
