    19
        -40.91836657
S           1.17613437128628    1.08814753360785   -1.15045678274320
O           2.07944704205776    0.95670522146088   -0.02212043617587
O           0.79511463936658   -0.17782858939447   -1.73307001186761
O           0.00912450995745    1.91220694614049   -0.79803693006499
O           1.94735858517379    1.89380695676758   -2.26609099027245
H           2.27029416393788    2.65052289376658   -1.78652987353117
O          -0.10782832329221   -2.05307254512165   -0.22461199907152
H           0.08235203552125   -2.88837157399387   -0.65491281970023
H           0.24356954115646   -1.35126944854458   -0.84098212886713
O          -2.50671245477186   -0.98623019873141    0.30744412758968
H          -1.70533193772950   -1.47652292385683    0.01807073395229
H          -2.94072029660575   -1.52255837230165    0.97361411537351
O          -1.18599248378236    1.05070836019522    1.17350751025573
H          -0.72618232909014    1.50791777748254    0.31869403857073
H          -1.83443987547133    0.36059104045310    0.81203441283064
O           0.77713993122206   -0.37888604367651    1.78244400000851
H           1.43130761313743    0.11679789830698    1.22761472484646
H          -0.39073403019592    0.48666895023259    1.58180923527908
H           0.58609930812028   -1.18933389278254    1.28157908350522
