    19
        -40.92129514
S          -0.59717431461533   -0.28750046080700   -1.00431240322126
O          -1.42898729957957    0.73700447962169   -0.38098637106498
O           0.82684496510006    0.12616508806163   -0.90103179893894
O          -0.79290173915439   -1.60616071871165   -0.46200700309854
O          -0.92434002892353   -0.33310183296324   -2.52330318826034
H          -0.78557678908196    0.59414180416628   -2.81031636281495
O           0.75452697873218   -2.58336752197188    1.39320190662922
H           0.05357451655187   -2.34292457590213    0.73716687499692
H           1.31053726902198   -3.23634658859989    0.96277680211624
O          -0.34310718442993    2.22786512258464   -2.33549577995313
H           0.55269971055941    2.02103424772475   -2.04775597288483
H          -0.90522815772728    2.07729138106945   -1.55830330131777
O          -0.68408044456778    0.94307089955022    2.10776934162305
H          -1.10120303019189    0.84698180156302    1.21418552358839
H          -0.77200152571568    1.86657144833250    2.35254521421659
O           1.50312858247349   -0.16830788088700    1.44253807803979
H           1.31541612832744   -0.01045917651466    0.38531514367295
H           0.70424204098196    0.30512257384461    1.87291545716170
H           1.31363032221934   -1.17708009020776    1.55509784944291
