    19
        -40.91317572
S          -1.17796566684282    1.42681054460075    0.82080511783370
O           0.07876874668975    1.66226167202340    1.55826082524641
O          -1.29732660058698    2.27486889387156   -0.33308647030284
O          -1.33165709934175    0.00947069646434    0.51942457599698
O          -2.33994167374983    1.79488979339234    1.82606803186131
H          -2.34559415228617    2.74800575204669    1.85413511380485
O           0.15710827543613    0.32539282838124   -1.61550459589460
H          -0.54251792208134    0.11059888585528   -0.95576269504242
H          -0.08248288569159    1.21442717811003   -1.90027163037456
O           0.51401454230568   -1.87753488265995    1.00354434783256
H          -0.33732100430795   -1.39582493957665    1.02072858017623
H           0.53546437518730   -2.33764629967719    0.14096385572376
O           0.69700173914816   -2.43721795742756   -1.64543147503559
H           0.45237068355617   -1.54735355803297   -1.93535106953963
H           1.44136120043004   -2.71592268495814   -2.18055060475646
O           1.73701849786550    0.22976425710288    0.46743089822257
H           1.37428183494018    0.31787064449187   -0.46191360956142
H           1.10166455113069    0.91979229865476    1.03076131972326
H           1.36575255817911   -0.72265313264627    0.78574948410028
