    19
        -40.90893955
S          -1.10571733915542    0.30212307730154   -0.87424835919159
O          -1.21351176769675   -0.26050952276881    0.48990031033547
O          -1.21887052895277    1.74825575614022   -0.82521935564838
O           0.07173651257640   -0.17341587680552   -1.54624053703518
O          -2.36538241897643   -0.22734987108732   -1.65392855137370
H          -3.08960615720493    0.27726391149215   -1.29515936053185
O           0.88831502759420    2.49270302097289    0.46721383993565
H           0.64600450737156    3.27020057719822    0.97516660469699
H           0.10787205552801    2.29128088844807   -0.11829317478944
O          -0.80106857505684   -2.97225258069708    0.23933252848426
H          -0.99671128722149   -2.02469050824499    0.24765466874275
H          -1.18802816736769   -3.33463706433194    1.03818071535245
O           2.22736426261728   -0.97467485703409   -0.32101478078100
H           2.92071843094077   -0.46900596314841   -0.75169469515972
H           1.43172781408292   -0.89653718775251   -0.90154177280247
O           0.99258889658439    0.19559739624649    1.52688933357516
H           1.60899163217339   -0.34921614229289    0.87763992955301
H           1.06028371621612    1.17426141083737    1.21451622496430
H           0.02329338594050   -0.06939648447892    1.21084643168027
