    19
        -40.92136404
S          -0.86794789548932   -0.37514728807152    1.01384184189667
O          -2.11853749123800    0.30887927157599    1.23096267746299
O          -0.83754275223971   -1.08940131091704   -0.27471227791113
O           0.30183834954791    0.46032896075336    1.16641281563379
O          -0.76051888053183   -1.51195334372179    2.11717737162007
H          -1.66624494338816   -1.74004087858464    2.30663439444118
O           1.67947387253292   -2.02131118508484   -0.23540241905371
H           1.86360847849002   -2.27269095200069    0.67131566336058
H           0.71937003465812   -1.85202849870645   -0.27867197427509
O          -1.32107479752693    2.27558277458067   -0.33115803598949
H          -1.78875395641178    1.62874193273551    0.24456085323595
H          -0.67670437901731    2.70245543321469    0.24033268725399
O           2.04578635812058    0.55991219114963   -0.78575290948189
H           2.22767740995342   -0.40588203061245   -0.78708442277292
H           1.59937366562067    0.69146080581414    0.08197735163472
O          -0.14936578124718    0.66729224515173   -1.92896797623620
H           0.88738574991499    0.68672616696614   -1.57578800735896
H          -0.51203464502193   -0.15025586447717   -1.42466112497537
H          -0.62578838665683    1.43733157036148   -1.45101648848787
