    19
        -40.91889777
S          -0.70905138973953   -0.76465871801432    1.07323262512248
O          -0.11184875852518   -1.29414659738122   -0.17144395849064
O           0.20459309024615   -0.91277753073763    2.18735145607143
O          -1.20722477462506    0.57022363850477    0.87406379239150
O          -1.94233931275437   -1.70329175952633    1.38246798007846
H          -1.55505632896513   -2.40808314234556    1.89284203406263
O          -1.37717810973798   -0.39683166600887   -2.36470392926685
H          -1.16125251105032   -0.97096622905636   -3.10081221389278
H          -1.03972267597246   -0.83598964506365   -1.55893564121090
O          -0.47871055346117    1.86225964986855   -1.27488850732426
H          -0.92572775665736    1.26610053736927   -1.91325756544809
H          -0.89115042731566    1.61965270861397   -0.41020972791512
O           2.00729677857474    0.88982727315090    1.67581935943033
H           2.82674324585492    0.60103979159140    2.08338552153976
H           1.30393814182801    0.26805806625025    1.99180858731663
O           1.52745932862681    0.51515100571856   -0.79726466892756
H           0.96998643321330   -0.32705936816347   -0.62266490246971
H           0.71694249145365    1.23816006814507   -1.08194607440135
H           1.84230307903277    0.78333192710471    0.13515584338517
