    19
        -40.92021795
S           0.87379173954706    0.51538605338835    0.30389619143232
O           0.25972658220163   -0.20310303686712    1.40668855755259
O           0.94033871510389   -0.39303690789087   -0.90998497085695
O           0.25734898601889    1.76234909465936   -0.02170609959437
O           2.35859337882175    0.76211866722239    0.65034831768482
H           2.66688629806770   -0.05992095606472    1.10689097486207
O           2.50755878773163   -1.40766157333733    2.07972251211391
H           2.74957560481780   -1.27420261894319    2.99948670185833
H           1.54966122829903   -1.23341069570688    2.00871475819744
O          -1.52832737638450    2.04106691810785   -2.00982509562624
H          -1.08383043341279    2.53580661785286   -2.70080482859213
H          -0.96045622905281    2.10517446703700   -1.21847587584730
O          -2.17819492487345   -1.01775239368491    0.62326810958820
H          -1.36293563290270   -0.66627226034920    1.02915528793764
H          -2.31280111174709   -1.89363009550924    0.99031513702297
O          -1.32801857117945   -0.59137811273335   -1.85739725454997
H          -1.54379304246883    0.35330322950302   -2.05560574045728
H          -0.03548428501308   -0.52425643055198   -1.38653308328655
H          -1.82963970338288   -0.81057997603142   -1.03815359953862
