    19
        -40.92315430
S           1.03621263775990    0.43788621179179   -1.27162374893031
O           1.05089018736883    1.72989983752289   -0.58080184318411
O           1.31629903512477   -0.64251674130629   -0.32393246784254
O          -0.16541153105587    0.19670240408222   -2.02412814974144
O           2.24231450241918    0.49110607495815   -2.28274531804427
H           2.90278377990605    0.97090027749451   -1.79265900413371
O           0.53552231764744   -0.36830159257410    2.19778895571732
H          -0.03851028713525   -1.13974285921114    2.25158878541961
H           1.04492219356226   -0.48792571547217    1.36618861482633
O          -2.13919907256604    0.22933043790284   -0.29601938738940
H          -1.94377267690247   -0.68266941883430    0.00905225692591
H          -1.59541539269485    0.31518472548431   -1.11191344951840
O          -0.85765190176551   -2.06139277120541    0.24156347964397
H          -0.02293706381389   -1.63926699759815   -0.06073107275342
H          -1.02929667238094   -2.77787713820111   -0.37110965856524
O          -0.69312118156969    1.61462107626351    1.18780308333619
H           0.04113917654443    1.82123900560885    0.47416107649374
H          -1.43611936977779    1.09955227365979    0.61641802382212
H          -0.24864868067003    0.89327090963516    1.77109982391411
