    19
        -40.92007393
S          -1.10418866280329   -0.57363993119774    0.63339787156080
O          -0.22824097927822    0.43776759858778    1.25853874220048
O          -2.33709983737833    0.01714833370147    0.16326636706211
O          -0.38540725058171   -1.34587415011851   -0.34540992147184
O          -1.48926568330872   -1.56488675511935    1.80944231767081
H          -2.22563659150620   -1.13519430239056    2.23435437662487
O           2.01595750112038   -1.03975267140370    1.43810609086292
H           1.71162578943233   -1.94239690419897    1.55094019889795
H           1.22648927221349   -0.47707174414158    1.54688559263193
O          -1.42502376503117    1.40979713561135   -1.84227513851501
H          -1.85243292950181    0.83136067386015   -1.16285835945702
H          -2.01992277840845    2.14992443780431   -1.98153123980317
O           1.95893573944999   -0.48958600289540   -1.16264539591557
H           2.33807398677156   -0.69075448867476   -0.27548198668500
H           1.11150300097971   -0.98825895219527   -1.14662041960690
O           0.82526328037184    1.65028817374358   -0.67152805338161
H           1.43243572963730    0.78409449090987   -0.99033052541887
H           0.00286554741238    1.66371310720294   -1.27413207854998
H           0.44406863029808    1.30332195090726    0.21788156135618
