    19
        -40.91889717
S           0.76710054913307   -0.39894159511707    1.22129493169184
O           1.25752848503072   -0.32645532626125   -0.17176313554719
O           1.10279174392787    0.80671672584237    1.95045687103448
O          -0.62609063269710   -0.75622310345777    1.25463905602256
O           1.58691608632539   -1.56890847039661    1.89728441920551
H           2.36088380457698   -1.12573192362068    2.23157360209293
O          -1.99882669031817   -0.63714026394126   -0.96461525479524
H          -1.73582185519824   -0.76178020140713   -0.02048167068207
H          -1.50483215959947   -1.34460473538988   -1.43172094008074
O           0.05994818396384   -2.12844473563280   -1.76483151474319
H           0.59509125193563   -1.60055840667528   -1.13967034550065
H           0.59090679800956   -2.23958499442019   -2.55480331675221
O          -0.53178112255261    2.54701218353187    0.91964041264328
H           0.03416669744008    1.91751620041298    1.43379210623564
H          -0.12641192311126    3.41206833957731    1.01094577829084
O          -0.40908599116924    1.22313276071681   -1.25256295149311
H          -1.23473596787525    0.46555399707070   -1.21610033186305
H          -0.56720004904460    1.86356383019073   -0.47446731097884
H           0.37945281514401    0.65280974030634   -0.92861042803602
