    19
        -40.91892670
S          -0.57801604056919   -0.74881145932559   -1.07769869108125
O           0.46186302385842   -0.91577361572890   -2.07000278100856
O          -0.22255837066095   -1.41602034345412    0.18886919776394
O          -0.97739264605028    0.61740659808033   -0.84718394036942
O          -1.85524120771016   -1.51398120351574   -1.61056427876891
H          -1.51072636730529   -2.31490552741604   -1.99454551558854
O          -0.22556232434346    1.94745486191407    1.43762443510758
H          -0.99894811494192    1.45297424555415    1.79214305626855
H          -0.42150067836831    2.01343510739310    0.48937379739168
O          -2.17675787274359    0.12392852999664    1.52219654090347
H          -2.06192728405094    0.28472300958297    0.57064846607043
H          -1.81740208729749   -0.75650428189216    1.66548376354996
O           2.42937464359793    0.46096580657741   -1.07819620803910
H           3.24817653397662    0.04508385350076   -1.35683058144192
H           1.70142699558882    0.00057818046993   -1.56922573158430
O           1.44292398082843    0.09581994028745    1.23505899498753
H           0.81912690986840    0.94099697674933    1.41992336293636
H           0.76493892707011   -0.63167445720467    0.89239375891916
H           1.97820195924199    0.31430378843002    0.39053235397539
