    19
        -40.92071374
S          -0.55961336858561    0.12920711741457   -1.36709457663409
O          -1.60524411289719    1.10804475815796   -1.55668479110698
O           0.69286829073228    0.75539920530643   -0.89820979518226
O          -0.92988848842156   -0.97020215329496   -0.50643387114401
O          -0.22929213421432   -0.47030901223190   -2.79101011291858
H          -0.38540760246298    0.25663080024947   -3.38726506158006
O           0.53281345873474   -1.43975956795546    1.62654537678398
H          -0.09388657155094   -1.54413776947173    0.87408708141728
H           1.41418827190753   -1.51905537733604    1.20443484829633
O          -2.25859862767466    1.07560741837212    0.97752781297071
H          -2.59894595225193    0.17939589588428    1.05463901311177
H          -2.15606010855390    1.22759217497589    0.00819000191726
O           2.54430595884038   -0.99833942239708   -0.06492768298100
H           3.40076995038408   -0.56904841313097   -0.04332532922140
H           1.93428841809216   -0.38358182735502   -0.51893389012208
O           0.21332382571636    1.01433284339411    1.55855132538530
H           0.51294197565641    1.07241963496256    0.57823730050463
H          -0.80853317879989    1.12704095414601    1.48908286329506
H           0.37996999481226   -0.05123724005380    1.76258947781487
