    19
        -40.91907715
S           1.14484864704144    0.98568474631740    0.70697331134771
O           0.05366974238902    1.45372958324424   -0.17406752817729
O           0.84329711130340    1.22421025091586    2.09911434393425
O           1.50216607651912   -0.38001592909999    0.39995414721952
O           2.39260776408219    1.88670376453060    0.33686788036479
H           2.28563599676189    2.68396254591233    0.84916081162790
O           0.76515083918719   -0.31754934547088   -2.13365842980226
H           0.50061912938232    0.59629517540031   -1.96516036651374
H           1.25301364822641   -0.55411231433415   -1.32038012572805
O          -1.47951387253057   -1.56840621043244   -1.69647146498330
H          -2.04756439586685   -1.47147389778110   -2.46291080779620
H          -0.58301921479061   -1.20273355287915   -1.95244328328187
O          -0.50111977043894   -1.02513679660205    2.17987700174197
H           0.19617682456995   -1.50559427683304    1.71497308046057
H          -0.06456814473543   -0.18402110675134    2.44319275689521
O          -1.86322312190271   -0.05254835559009    0.28863186917610
H          -1.13713828401213    0.68258855974512    0.07491313612987
H          -1.80540338424036   -0.72050009060155   -0.50639817941146
H          -1.45563559093104   -0.53108274967026    1.11783183680995
