    19
        -40.92158998
S           0.20493041364909    1.04019182876094   -1.02732238346012
O           1.18793038814192    0.87939672853185    0.05231345559635
O           0.73156130386524    0.65736623543777   -2.30896743617678
O          -1.05839970157739    0.41473911502616   -0.66644622162250
O          -0.11322706473627    2.59091131638054   -1.10187386247305
H           0.57506612953626    2.94367329639491   -1.65749513360063
O           1.66638283107898   -1.62321902208033   -1.30003785882802
H           2.41200606021906   -1.28548680441103   -0.79830717266549
H           1.35603018288711   -0.87023361162361   -1.83991857202803
O          -1.89209972579783    0.88401087704221    1.77084405057445
H          -2.75796360356512    0.48717228215127    1.88540442184412
H          -1.70479212615007    0.87991526674082    0.80254033591896
O          -0.47189600054923   -2.04169058661100    0.19415680855805
H           0.33668665260579   -2.16810189060843   -0.35662714005073
H          -0.94994223497651   -1.32486874416217   -0.26757339214986
O           0.28788255919061   -0.44117220347706    1.94469046771389
H          -0.56969177968873    0.07460828332467    2.11801245819014
H          -0.01587360066766   -1.26092967850959    1.32590326286977
H           0.77540930653279    0.16371729169104    1.23070389178888
