    19
        -40.91836638
S          -1.36414192310638   -1.08831963467087   -0.91976656674067
O          -0.50756799175968   -0.34806371566990   -1.81720067782611
O          -0.68426554878495   -2.17074855312219   -0.23249201467122
O          -2.05910110535954   -0.21126061238398    0.03592179849931
O          -2.49704461417988   -1.74299843309452   -1.80104266225724
H          -2.94169719806744   -2.30805154789010   -1.17663496252153
O          -0.55211093043855    0.66772122131077    1.77138956370630
H          -1.28635560812150    0.32473854082585    1.06708651454504
H          -0.14310071404751    1.50360679477155    1.36984947578119
O           1.74059032546456    0.56038807996334   -0.96355766874739
H           2.32667266858952    0.63866821945624   -1.71817167280836
H           0.87822743629529    0.21913978340298   -1.33205969605261
O           0.79401901078192    2.52386401750662    0.59366967088081
H           1.18270142484829    1.91891658420995   -0.07657212440451
H           1.52276020250876    2.89872581694930    1.09180037608267
O           1.17188602750118   -1.05621284523287    1.19958470674989
H           1.66980637338097   -0.60299541801503    0.49901601439712
H           0.20094592253244   -0.06853664272523    1.68798669641719
H           0.54777622200334   -1.65858164563033    0.72119323899158
