    19
        -40.91941549
S           1.45232581312084    0.57192752142939    0.42094138978247
O           1.12289370413534    1.15236305902837   -0.86812517813492
O           0.60940608949548    1.13744732981789    1.48156009482090
O           1.42601085883018   -0.87348937949420    0.41502948827096
O           2.92777646180950    1.00034178294499    0.76666271599273
H           2.88468052858189    1.95132850859128    0.74780418775518
O          -0.87273785865696   -1.93535417368033    0.98171323647982
H           0.04563951615920   -1.62844076891156    0.76510501448315
H          -0.80876752146846   -2.41753702275774    1.80817666591370
O          -0.09017142318631   -1.04789610875784   -2.06505669356854
H           0.59175600929690   -0.42230949166937   -1.77612963383853
H           0.05846990148511   -1.85058115432686   -1.56110702979676
O          -1.49905637639849    1.11901465226889   -1.36574844402889
H          -1.38887007794568    0.27792750035082   -1.85051556431043
H          -0.57583412922040    1.43937333507192   -1.28482972170558
O          -1.73073829644535    0.46533948571729    1.02808514398910
H          -1.57816582950300   -0.54398689083196    1.02685793857901
H          -0.79245810569892    0.83744166285353    1.32645679298526
H          -1.78215926440978    0.76709016235606    0.00311958633266
