    19
        -40.91908966
S           0.69182253255445   -0.68950166363941   -0.70922043072565
O          -0.21772985649746   -1.03356974666211    0.42426979631866
O          -0.02995137492801    0.12090535323682   -1.67152558582867
O           1.89550952146593   -0.06130510626763   -0.22274940148138
O           1.08380592535484   -2.03869595385358   -1.37056619721031
H           0.22672296373515   -2.49827224591343   -1.49048085701236
O          -1.35819471175934   -2.95879941208748   -0.97818034463411
H          -1.20699223526226   -2.25294291996708   -0.32098809890116
H          -1.39698622973195   -3.78563339526984   -0.49181147228909
O           1.79066453637204    1.61499956721738    1.74842923429430
H           1.98477900188910    0.93068660957384    1.05520967289767
H           2.06232528063555    2.45521082747700    1.37168296436430
O          -1.07856307912141    2.21031309588252   -0.61983711207770
H          -0.63485799271578    1.47128505236884   -1.12924479092081
H          -1.96385644289962    2.28282520731093   -0.98274635964091
O          -0.67233209050689    1.08925538878107    1.60322805344751
H          -0.94063910226217    1.64835398013076    0.77373240099505
H          -0.53587779548939    0.11626674752841    1.19031687364235
H           0.30035115916477    1.37861862417187    1.82048167477386
