    19
        -40.91836652
S           1.06537627725214    1.63183075853716    0.30150494901522
O          -0.08529233585741    2.00070840131560   -0.53825194004279
O           0.65645854420520    1.41337623895833    1.67679173901243
O           1.81883956490771    0.53278152763248   -0.25675701870944
O           2.01764665921731    2.88950433480640    0.29903513864008
H           1.51021149048131    3.53167533152380    0.78601156245472
O          -1.89503721403411    0.33631881994241   -0.42868460571589
H          -1.16983903569718    1.12062619537821   -0.53049624914262
H          -1.65965845698647   -0.36051053214215   -1.12603503049929
O          -1.07488748221537   -1.62916822525364   -1.88055273324880
H          -1.60875642285218   -2.42548759679410   -1.85621917883762
H          -0.27687183115507   -1.79857819439580   -1.33203471851180
O           0.89938311783009   -1.86139885790990   -0.08514668332328
H           1.29120948736092   -0.94703986588202   -0.16536574293379
H           1.64660614441383   -2.46153447864157   -0.10864675185105
O          -0.89614407408478   -0.66615792348055    1.63686213885813
H          -1.62417276005325   -0.10226544717303    0.49394089923056
H          -0.28626421882321   -1.32029010516867    1.25713173598986
H          -0.32880745324891    0.11560963083396    1.85691247975328
