    19
        -40.92246923
S           0.62606697985691    0.19518468996707   -0.84543102306548
O           0.93469386090564    0.45743454652292    0.62645956640348
O           0.74541921504327   -1.22053746009009   -1.10575678707168
O          -0.63019735267226    0.77728817723229   -1.20966112771730
O           1.76411215591289    0.94805512235129   -1.56820298617488
H           2.58013190852692    0.44882127145665   -1.31279383263186
O          -1.64787274289347   -1.77617380569105    0.01439119503050
H          -2.25811883244308   -1.34233904603951   -0.58712730583408
H          -0.79063407830182   -1.79723238165653   -0.44437678881131
O           3.34084796566562   -0.83010173025163   -0.51378020603638
H           2.57719885946746   -1.39366410944167   -0.71927513477566
H           3.31291115453444   -0.66707092509381    0.43320515492290
O          -2.37183368203321    1.82590756848482    0.55013415760514
H          -1.84647857294695    1.51883050528847   -0.21307184969460
H          -2.23412101337575    2.77253377779035    0.61242398577360
O          -1.09362148605318   -0.03881923136031    1.93503688518397
H          -1.68463071474780    0.69639454917618    1.64631371312037
H          -1.39978689915523   -0.82514895230731    1.42104136480886
H           0.07591326478186    0.25063743370515    1.28047101891384
