    19
        -40.91346201
S          -1.22298373433164   -1.35959432383420    0.92164840562650
O          -1.82693780721571   -1.35336820389603   -0.47285908004776
O          -0.24903570684169   -2.39745355201274    1.05701150869276
O          -0.78074346670385   -0.04291858428754    1.28984195021540
O          -2.46092136465373   -1.71450104239983    1.81942498639037
H          -2.62397866451915   -2.64993234351406    1.71583981841338
O           1.61300722264660   -0.52403032582730    0.14705244654884
H           1.74200893776928   -1.45448415801393    0.35440192602066
H           0.88542269633383   -0.24522262768053    0.73167569669133
O          -0.55231057275727    2.14034471363904   -0.45758895276886
H           0.37893143970259    2.39869612900512   -0.32087527410293
H          -0.80881736505587    1.65639086433473    0.33954450118156
O           2.18388935803311    2.20112760617296   -0.23657861554015
H           2.24598588577780    1.25636892511165   -0.03645859322400
H           2.70185482116164    2.35387419239182   -1.02875386958047
O          -0.22473643299924   -0.04546192286071   -1.82013340879367
H           0.60899347246457   -0.29131428166114   -1.37510078424263
H          -1.18194885556512   -0.80607329118604   -1.14882171540844
H          -0.42767986324557    0.87755223653637   -1.47927095609657
