    19
        -40.91955527
S           0.26833065567642    0.55248410398075   -1.47823277698580
O           1.36522689200250   -0.35776604981433   -1.14283806723041
O          -1.01736825836660   -0.12197645007919   -1.30968898601204
O           0.33924391677563    1.80576130210082   -0.77375153567823
O           0.42202831370517    0.87325110541086   -3.01955924898561
H           0.54236863285241    0.02275437871593   -3.43178217672341
O           1.73576205749981    0.95742500065491    1.22378334769503
H           2.23218098004283    0.35934920508092    0.64875426786943
H           1.22841585162083    1.50923537200463    0.57536420301623
O          -2.03896255211939    0.68815626436774    0.93363054486297
H          -2.96264856827309    0.43116508713251    0.94892236247352
H          -1.70377875921560    0.51098007056297    0.01719326742958
O           0.05598457713024   -2.11474157185383    0.20957087815496
H          -0.76845377504008   -1.99245276262195   -0.27780410924775
H           0.70334609717194   -1.58540015567263   -0.32653610905834
O          -0.11804015524311   -0.47223511252992    2.11068822829659
H           0.70042367491505    0.15996420295165    1.86723885607720
H          -0.94781368350811    0.03973769611020    1.79434076858282
H          -0.03624589762302   -1.26569171649696    1.43070629545927
