    19
        -40.91039619
S           1.25366023669595   -1.19159442293597   -0.86344278503123
O           1.89099076801046   -0.58016078083763    0.32291079346310
O           0.33868693797128   -2.24291164456546   -0.46724823011617
O           0.68142930865449   -0.19031768874413   -1.72679531054032
O           2.42906110798429   -1.87749409994028   -1.65806942797509
H           2.67445405300503   -2.61217934144728   -1.10326671010602
O          -0.00424450102868    2.11714624628578   -0.76115485169638
H           0.21521077293992    1.27987370374675   -1.24510502233743
H           0.64560820796923    2.76729482479926   -1.03371372614427
O          -1.42238379522375   -1.06601587489584    1.01339320812719
H          -1.70941032169457   -1.68130893939801    1.69103612430250
H          -0.82653371722671   -1.57523815834044    0.40307893213876
O          -2.49343159206895    1.55153040699375    0.54378568971911
H          -1.98035204988703    1.91333702982714   -0.18477918438972
H          -2.50680052005068    0.59674307379313    0.42693995660308
O           0.24717591262519    0.83968853402941    1.45239177524208
H          -0.54481994473998    0.20414743273016    1.44049450649233
H           1.05192313584290    0.23017972274555    1.03241340474903
H           0.05977598021111    1.51727996619899    0.71713086747793
