    19
        -40.92135414
S          -0.64257591143561    1.05396798121429    0.95520018677184
O          -0.86162571738600    1.79743547856249   -0.26594426819460
O          -1.62730773806720   -0.01427443551340    1.13142676160081
O           0.71643119797297    0.55280525259560    1.08612149106312
O          -0.85369548446733    2.05484807394660    2.15688881079184
H          -1.70925345905441    2.43018774505427    1.97267304089041
O           2.04740774157532    0.65113114547769   -1.25007548560984
H           1.69271063241766    0.65567542673417   -0.33961684921299
H           2.28902111654561    1.55758223391768   -1.44795161631047
O          -0.36498379403442    0.02154397495693   -2.12731198977028
H           0.61481842846014    0.10359135493992   -2.04134501744970
H          -0.69876557766842    0.78482122144506   -1.59922187051253
O           1.00705760426599   -2.06832896974194    0.87752454860006
H           1.04208242634255   -1.09704199153202    1.03260495795396
H           0.89099638049473   -2.47835290837610    1.73661699028799
O          -1.07817465142528   -1.75647065229135   -0.56046038669628
H          -0.22484646457959   -2.07531122549999   -0.10619672768795
H          -1.46531265458772   -1.10075454482613    0.14632045769491
H          -0.77398408517309   -1.07305513098633   -1.35725302418584
