    19
        -40.92343660
S          -1.27730787779450   -0.23228671167550   -1.07725941576856
O          -1.91647954762560   -0.89349202391153    0.06159621755493
O          -1.33298915497816    1.20965259025538   -0.96490566183004
O           0.07414374561507   -0.72316743905634   -1.29542558584065
O          -2.10838151531442   -0.64567855166972   -2.35021742091264
H          -2.98079461000356   -0.32505217282323   -2.14360486358117
O           1.48776460079646   -1.67443056425958    0.75877074539160
H           0.99651232229793   -1.59702470289967   -0.08550082862433
H           2.23189065158607   -1.06843812827982    0.67160498160936
O           0.09758210761801    1.73630408979898    1.16084944932608
H           0.96380963638649    1.61662607416692    0.71824030228199
H          -0.54791559055667    1.73956959121134    0.41426894419084
O           2.02107695249557    0.90725508189676   -0.52151115772333
H           2.32994026315686    1.51270211903747   -1.19687973002043
H           1.32976804558254    0.35201829736650   -0.94520530652203
O          -0.41900069183851   -0.54772101497793    2.01279298420308
H           0.39402413697243   -1.08218809809488    1.68145121416004
H          -0.19197236168449    0.47593058956013    1.80322868121338
H          -1.15167110269162   -0.76057905572398    1.29770647090296
