    19
        -40.91893407
S          -1.15444951130160   -0.29122092486122   -1.26619583126381
O          -1.36757216801027   -0.87439257088466    0.06731749233954
O          -1.87509515599041    0.94457662197829   -1.43890667728331
O           0.25755795352936   -0.23096301099808   -1.58873626434655
O          -1.78926775574292   -1.32809725401133   -2.28712618792503
H          -2.70494305241120   -1.06754937410494   -2.31606301483564
O           0.43112227601368    1.36327669420422    2.26114080382889
H          -0.36598109954289    1.62199174963430    2.72781718801410
H           0.35715129770838    1.75499462136600    1.34966800908316
O           0.10855461626126    2.17807725347561   -0.21108306124992
H           0.78988729930698    1.81656525815048   -0.78584884223958
H          -0.73091931450849    1.89057725528248   -0.62419197238778
O           2.18286512207535   -1.27859092868326   -0.20826126685401
H           1.53339614239184   -0.85645029869302   -0.82828498843208
H           2.38725721133228   -2.13973926309815   -0.57734452388837
O           0.48559342520250   -1.09456340331916    1.67015124516882
H           1.28035950886523   -1.21823059602934    1.03473454883060
H           0.52868026898401   -0.11829226101514    2.01465623131655
H          -0.35419706417347   -1.07196955834004    1.00655710211648
