    19
        -40.91892627
S           0.43759038154122    1.00326634572749    0.92623741171378
O          -0.11727200148840   -0.27239732120086    1.41612280647905
O           1.88440639118551    0.97753979867626    0.91267359426497
O          -0.17003544326399    1.38350837273481   -0.32497376042476
O           0.00351592777917    2.08721561396514    1.99280211741160
H           0.62206021950588    1.97927628492373    2.70929093222688
O          -1.40237293159834   -0.48016667278744   -1.92872019600286
H          -2.13328605901630   -0.31065519462622   -1.29185645454808
H          -0.88467164263452    0.33988222566880   -1.89416927391093
O           2.40794473589913   -0.77178614354392   -0.93550942789860
H           2.29486537760382   -0.02625704941815   -0.29175309230235
H           3.22955328699888   -1.20884704193276   -0.70096110011075
O          -2.61240727999078    0.40509794111559    0.28215272982900
H          -1.88385930293776    1.03629759132785    0.15834203582332
H          -2.35581373677215   -0.11599871740999    1.04861972259165
O           0.14001426172657   -1.83077749910983   -0.49684984452402
H           1.08101572575265   -1.54426071335942   -0.77981266977078
H          -0.00964998706689   -1.27846667492657    0.38558646782088
H          -0.53159791324710   -1.37247117587919   -1.18722200866388
