    19
        -40.91103812
S          -0.96927274879264   -1.07506300817977    0.48978266680061
O           0.16982790840879   -1.35939288281407   -0.40918432172840
O          -0.58329746666144   -1.28912902588535    1.87003023389914
O          -1.52626728551070    0.22921382256016    0.23643015755432
O          -2.06583040745989   -2.13796121725153    0.12726590745941
H          -1.64835384810082   -2.97671052816292    0.30017102025136
O           1.18446946631210    0.53909545166875    2.29747159695569
H           1.80679179402967    0.19364881447396    2.94166178959818
H           0.44530430726181   -0.12709842194692    2.24123179875098
O          -0.15435818710791    2.04815149536989   -0.97129289461812
H          -0.33050598893658    2.89984713927240   -0.56669851463410
H          -0.80505154001982    1.40844356535246   -0.57554724022317
O          -0.42706447762851   -0.28556125300186   -2.93864448826744
H          -0.27253007266913   -0.79885318612378   -2.13578038625326
H          -0.46565048288992    0.63595598658164   -2.67141532891467
O           1.72231287176743    0.54318805713971   -0.16842127924190
H           1.64096024338283    0.62940245620572    0.85875109728285
H           1.16805344873690   -0.34537511142985   -0.35854767848891
H           1.11046246595060    1.26819784606118   -0.56726414625961
