    19
        -40.92079101
S          -0.23159033765260   -1.06555510294805   -1.00866644979596
O           0.73696611890796    0.01958904550073   -1.08096971201136
O          -0.44184099248618   -1.49248367200644    0.37606557373671
O          -1.46750919539329   -0.80261118112548   -1.69967136386340
O           0.46366738734000   -2.28576406978179   -1.73869949329727
H          -0.23030613122049   -2.93551854554883   -1.79056051180912
O          -2.59185670405846    1.01771326475491   -0.14806276158349
H          -3.25352997263028    1.47902754578853   -0.66698261212178
H          -2.26225865871646    0.28624291697375   -0.71388598223197
O           2.70838658697696   -0.11888739566851    0.64332423245326
H           3.29456578619963    0.62513188824404    0.49080458564693
H           2.10050490143783   -0.16153587866547   -0.13230417744571
O           0.56101194686824    0.05775390760945    2.02467785560139
H           1.52115187063521   -0.01839433372825    1.70457089916761
H           0.08009865912801   -0.68049476243054    1.44602072087242
O          -0.21023581258975    1.90909959037966    0.54466120740063
H          -1.17672991916704    1.76176033045007    0.41617309641426
H           0.20144162041088    0.94569965612989    1.55602614519254
H           0.19806284599328    1.45922679600435   -0.22252125230919
