    19
        -40.91892629
S           0.33145536656648    1.12622703807467   -0.82217866650111
O           1.15211546513756    0.79751087485032    0.35852889906710
O           0.91888300769879    0.59872271610471   -2.03493222108771
O          -1.04694194874960    0.75933214147687   -0.61094644344106
O           0.37204991185943    2.70311330815193   -0.93547046100516
H           1.21276469770525    2.89203354155615   -1.34188853439982
O           0.68536242089572   -1.96867241542739   -1.70974289254722
H           0.72218227283875   -1.00833290067313   -1.95323309223592
H           1.42365195440636   -2.38890635708195   -2.15630002162919
O          -1.74511067944322   -1.10830579310409    1.28271645676251
H          -1.94747552492063   -0.72250895450316    0.41558210391249
H          -1.65561172877028   -0.31920851953589    1.86388280521139
O          -1.05785905438391    1.36577088199077    2.02069934773548
H          -0.10595552742807    1.43656424772997    2.13815738962342
H          -1.19432837304232    1.44881409635086    1.06205015795425
O           0.66109132418245   -1.59286469990446    0.80341819572480
H          -0.36715285634312   -1.51237345772173    1.07478719449202
H           0.67696973001536   -1.91731118390107   -0.16717707331234
H           0.96390952117745   -0.58960456427863    0.71204683569452
