    19
        -40.92135279
S          -0.00683700603157    0.58153818507758   -0.66903539402100
O           0.53106708938270    1.04597673234749    0.62534907759439
O           0.88833358425777   -0.39750569450511   -1.27790690506087
O          -1.35246544509797    0.07447832110616   -0.50690966508360
O          -0.07504053495736    1.82230707201997   -1.60054391548409
H           0.85439624070696    1.97013724992175   -1.88941595707811
O          -2.42173591898986   -0.13089639265246    1.86951345128067
H          -2.74458838309234    0.73100227805380    2.13933477324098
H          -2.18150153394614   -0.04975741269853    0.91368168710684
O           0.09453143883235   -2.33366260529541    0.32003342458113
H          -0.81440153772794   -2.44503699948231    0.02625137482341
H           0.50879072091000   -1.73956032533023   -0.34588068097612
O           2.43007145505775    1.47894139916127   -2.29822500243575
H           2.14600100668770    0.62198306148781   -1.92406039750302
H           2.60856755434849    1.32657262483362   -3.22934886869128
O           0.03101428868718   -0.69023368395601    2.26953385788304
H           0.12514206100534   -1.48667969627914    1.63224581979328
H           0.35339237796649    0.14266362208265    1.61694369426297
H          -0.97473745856378   -0.52226772555437    2.32843964541480
