    19
        -40.92218954
S          -0.30056147897673   -1.08271405239455    0.27733499680312
O           1.05679777843639   -0.75354285898198    0.70070033778278
O          -1.25674353892584   -0.09835167686513    0.77369853358997
O          -0.38610165367543   -1.22335021575501   -1.17629516935138
O          -0.67454193828021   -2.47028522280177    0.87540077953806
H          -0.59805429587045   -2.30857907226589    1.83877131214957
O          -1.48247338465327    2.00253279279755   -0.72907998374073
H          -2.39977034164701    2.03976873031891   -1.00856294723647
H          -1.42707681201457    1.26404700495312   -0.06441041106301
O          -0.22211453783986   -1.12288123745957    3.08986756480466
H           0.62395851282830   -0.89691576321046    2.68116886637330
H          -0.84854806624720   -0.48049405125621    2.73091629661827
O           2.27117792571682    0.93080501977851   -0.85193154904675
H           3.04976026810131    0.47998963380355   -1.18586190872230
H           1.87277924376115    0.32410436096561   -0.17118811240367
O           0.18721847247009    0.91104826440607   -2.27601582149902
H          -0.07952647688358   -0.06183935050976   -1.94072439701864
H          -0.48659516884738    1.49984664143053   -1.75587114871368
H           1.10041550248365    1.04681105296584   -1.80791722887968
