    19
        -40.91990208
S           0.35209668358646    1.30550051330281    0.67347292440728
O          -0.82873045788484    1.11746993127376   -0.20036856772448
O           0.90913505389606    0.00924057853163    1.02727150853981
O           1.30791710820176    2.21254929282458    0.10959221418850
O          -0.20948859945485    1.93228751503570    2.00761054262516
H          -0.60940525198099    1.20489382422743    2.47971706128856
O          -0.20770428116435   -2.14126696432200    0.05350886699705
H           0.34661959229049   -1.52178117159643    0.58331334322097
H          -1.10847136605288   -1.97590934408289    0.39401414479698
O           2.31912826137772    0.31860472396590   -1.41688147670379
H           2.07453851571367    1.15365816359743   -0.95593940889920
H           2.72083889842577   -0.23092797046333   -0.73723382537532
O          -2.33004833581770   -0.72630053036690    0.94987482391144
H          -1.86687678713303    0.03664256812304    0.54245696448779
H          -3.24942834775755   -0.65829305580593    0.68721585025689
O          -0.02075315820060   -0.56548787189580   -1.86142892117124
H          -0.46172999325648    0.20003890947286   -1.32435587030844
H           0.97246765505554   -0.28813233406965   -1.85030973782859
H          -0.11010518984108   -1.38278677769849   -1.16153042668763
