    19
        -40.92079110
S           0.34165595600290   -0.95339868766966   -1.08738215744889
O          -0.18069668626132   -1.58884386992665    0.12402463416114
O          -0.17621257841813    0.39984933853708   -1.23388679942740
O           1.77486282113635   -1.05269764898233   -1.18928852641524
O          -0.27201238207854   -1.76217592251630   -2.30152010091875
H           0.17886734783702   -2.59964136948759   -2.25795965230655
O          -1.33136428085921    0.00539145260855    1.62758552744095
H          -2.04598956273030    0.30671192126950    0.97282455599366
H          -0.86848498431293   -0.77966923862425    1.09769249521225
O          -2.64913175651981    0.75560631492497   -0.43455810724259
H          -1.80675543917040    0.59506610230932   -0.92184419155412
H          -2.88615013010739    1.67164721731144   -0.59277510818217
O           2.58192823646261    0.06971932902686    1.06324575404277
H           2.33953626728086   -0.43130771471328    0.25445856632589
H           3.49495666796798    0.33935293818313    0.94643098147145
O           0.46124655620021    1.63480044657241    1.04107510567438
H           1.31316993032897    1.17982061456006    1.24037841458075
H           0.31317002648320    1.44799457332501    0.09188564761563
H          -0.58259600922914    0.76177420326661    1.55961297099711
