    19
        -40.91503868
S           0.30462629535676    1.30133161440029   -1.07517043877117
O           0.58355683446233    1.55318437555286   -2.44635782245305
O           0.53589214650727    2.35589101685618   -0.11935960672437
O          -1.03865250218376    0.69371808603267   -0.86619110908383
O           1.30887092381324    0.11701970186697   -0.61547653639434
H           1.50401319568423   -0.31711584068168   -1.44346825446448
O           0.53789375466449    1.45438377939205    2.28034365695063
H           0.66261320142684    1.84454032736146    1.36862288792724
H           0.25774168056626    2.18077060856411    2.84141459788809
O           0.22563696503737   -2.17779664014413    0.67479366114180
H          -0.05219533326399   -2.21008518034995   -0.26564781662533
H           1.09523911169742   -1.76338421992857    0.66388330823898
O          -0.46986992778710   -1.66150626193109   -1.88108922929928
H          -1.09362332748088   -2.02001243698638   -2.51441308796798
H          -0.78742310313653   -0.76281989851156   -1.64941239222061
O          -1.17094428053112   -0.18997508918654    1.42826632029124
H          -0.50815701588089    0.43947637187170    1.91736534046197
H          -1.22752789917121    0.23751434003869    0.44780174667993
H          -0.66769070976080   -1.07513465422078    1.25409477442765
