    19
        -40.91941488
S           0.21079835849145    1.02230045580402   -1.23313804291998
O           1.53087536819559    0.67733969946303   -0.73725329484775
O          -0.40728573073560   -0.11978862404843   -1.91730134641580
O          -0.65068987083266    1.57905829467227   -0.21444546821060
O           0.39959458556788    2.13630629866426   -2.32998413262864
H           1.00726902834716    1.73339667278024   -2.94233865744685
O           0.99360947210721    0.63808873044402    1.99281296004865
H           1.23545158412100    0.96015184728354    1.11098486337427
H           0.13772813638331    1.02489220528289    2.18831727137571
O           1.53464060971417   -1.60924942150315    0.64083315488823
H           1.79123645809033   -0.91521497895406   -0.00251938238810
H           1.43107573532610   -1.10166351943529    1.46914193671830
O          -2.05682738809853   -0.15555466026549    1.10749914262072
H          -2.98814841619829   -0.02317300825279    0.92111899889031
H          -1.57297022299864    0.58295631672997    0.65478997340070
O          -0.77886936986476   -1.90266808035348   -0.23914802923769
H           0.20320608639501   -1.92250564811604    0.18330582499539
H          -1.35992201095072   -1.35874407089497    0.40047335026680
H          -0.66077240298585   -1.24592850921222   -1.05314911250890
