    19
        -40.92007306
S          -0.50972763750530   -1.26189583960205   -0.30769959555073
O          -1.48911336180286   -1.18245954915789   -1.36826833069621
O           0.80994186739522   -0.77461294263448   -0.75667415696695
O          -0.89739235307178   -0.63597463577986    0.92905613422548
O          -0.29534828395528   -2.80209688271483    0.00237185029884
H          -0.41925742709672   -3.22188481470425   -0.84364494817134
O           2.02095485733814   -0.65145119973757    1.64565831330756
H           1.61185813088986   -1.34559458931282    2.16621034676190
H           1.72251647552844   -0.79606789183598    0.72822907046627
O           0.42938210652873    1.47572750809804    1.75234712902858
H           1.21524196947908    0.90784568336659    1.92900638412059
H          -0.29265309285261    0.81357644350359    1.66741147423998
O          -1.76943157233232    1.40512021918811   -1.51729354459225
H          -2.04449897670020    1.61962299308665   -2.41142348328603
H          -1.78775559754534    0.41836156978515   -1.44836744273272
O           0.62182448228479    1.72849241991128   -0.69800440790182
H           0.84432841974343    0.73422388643645   -0.83453126520011
H          -0.33722640006754    1.78891746569678   -1.03859697004591
H           0.56635640370127    1.78015013640012    0.40421343250027
