    19
        -40.91892667
S          -1.39775196562235   -0.28249150093074   -0.16089920414160
O          -1.52316012623067   -1.05897175165012   -1.37558013482645
O          -0.64463782177941   -0.92288373347632    0.88875552862180
O          -0.87258437372250    1.06733279230596   -0.43961268181810
O          -2.85952132833523   -0.05651565512975    0.39812397271366
H          -3.38763173321450    0.11126443696362   -0.37693730273433
O           1.90985566765808   -0.10648681112163    1.50225498897072
H           1.29214030193634   -0.85271735481651    1.44663042319225
H           1.40158904243466    0.56770808267474    2.00786432493482
O           0.94757822374131   -1.40147574648061   -2.10157169898479
H          -0.00950971475843   -1.40078534294330   -1.84267984731079
H           0.96815981328690   -1.44645741870176   -3.06000141083832
O          -0.19280112709336    1.34154910790966    2.28837941667946
H          -0.59174698054352    0.49934401055129    2.01227924467529
H          -0.45392311975025    1.96966600860107    1.60856054483366
O           1.55126297545473    0.71558683056544   -0.83240307001057
H           1.47594848157433   -0.13164760570574   -1.40182078650490
H           0.54469059137174    0.99309296442498   -0.70346981923244
H           1.84204318359326    0.39488869696141    0.14212748177812
