    19
        -40.92343664
S          -0.65735436452848    1.06041895161867   -1.13496901655255
O          -0.74837287164510   -0.38844525451788   -1.22280461633212
O          -1.28613564710669    1.58498822177505    0.05860513176346
O           0.72343802368076    1.52566792528422   -1.27395862373500
O          -1.44189459320398    1.62819622435459   -2.37751497583233
H          -1.33461034371550    2.56928697689848   -2.28067530983876
O           1.32789018654189   -1.89580061330330   -0.48882015437847
H           0.62275009390335   -1.46204863091304   -1.01294636190248
H           0.86250309928080   -2.40964641958769    0.18036335829393
O           2.04657470356479    0.35038260239228    0.46889351979121
H           1.62647417026290    0.92679495034199   -0.29567183979411
H           1.94156811441112   -0.61120961646055    0.12197281636607
O          -1.13654713194987   -1.64888066942680    1.08096985048615
H          -1.13761320453899   -1.20398935812538    0.20462575140892
H          -2.05609288643864   -1.78422010999437    1.31384318355963
O           0.10243346984688    0.54326878822995    2.01537588696493
H          -0.46387964374339    1.10524099175404    1.43435149951056
H          -0.31399372070962   -0.34226847367241    1.95873250731523
H           1.32286255665160    0.45226349319272    1.24962737315172
