    19
        -40.92343662
S          -1.08340687913808   -0.12574670128073    1.28708831814911
O          -2.04589944655995    0.42566563230181    0.33213985707281
O          -0.84076463282517   -1.53391224789949    1.05677268570872
O           0.14431851964947    0.65309256012020    1.32424990128927
O          -1.74195545468018    0.01993711632887    2.71100649980589
H          -2.54441614831494   -0.48490062041892    2.62317729203790
O           2.23121423229725   -0.43974957434472    0.10055343633079
H           2.78012874275506   -0.99180898539965    0.65909930671756
H           1.52219804770045   -0.08192166965904    0.67940791911631
O           0.92431000204701    2.01061092410704   -0.83723242182169
H           1.78651703303323    1.58998500445399   -0.92782064668272
H           0.62158013615553    1.77843841689791    0.06526348873087
O          -0.88271201940210    0.53800446328653   -1.85952057887680
H          -0.16076696010816    1.22856009572237   -1.61841100302165
H          -1.50413497244563    0.53836958778977   -1.01850424353079
O           0.26578525557885   -1.60462583207732   -1.31234933593305
H           1.14972341561393   -1.31010815407365   -1.00811473899753
H          -0.21863477675513   -1.79531995625977   -0.47383805389070
H          -0.40308410426137   -0.41457005060916   -1.78296769213233
