    19
        -40.91908978
S           0.30020817365107    0.81503248170770   -0.83686126559952
O          -0.06469222643513   -0.33457754040473   -1.64250998177981
O          -0.61068860312727    0.89728090742897    0.34370272666555
O           1.67943585772979    0.80162734205840   -0.41513082698499
O           0.05826632421063    2.11086762727711   -1.65754983883388
H          -0.91726199458369    2.15918577297882   -1.73605638094005
O          -2.52164286325121    1.98969110514412   -1.11571746089767
H          -2.87820788926522    2.78244557707710   -0.70802064743236
H          -2.05600229728802    1.49774739718749   -0.41272209265527
O           2.38883777255555   -0.49805134731365    1.70959614943317
H           2.96985642121324   -1.19277407276956    1.39093266949063
H           2.24233476342279    0.10942892483211    0.93752779935674
O          -0.07967863132616   -2.51707588213659   -0.29835277688034
H          -0.01537827432128   -1.73255273688242   -0.91734033080907
H          -0.86931887784908   -2.99410448305080   -0.56219340095350
O          -0.07105604350500   -1.05558606611687    1.75759843203951
H          -0.37717545200782   -0.17396347550033    1.24334745374799
H          -0.12037282820369   -1.77593323284431    1.01492943277042
H           0.94253667839029   -0.88868828865309    1.90482034025695
