    19
        -40.92071325
S          -0.35862600996216    0.75915804844796   -1.22046698109054
O          -0.34578091431605   -0.68528097214115   -1.21123073506312
O          -1.68183460660329    1.33713298976862   -1.26959577020865
O           0.42585936146140    1.29176226520782   -0.08846408203614
O           0.39769109165558    1.23400054475812   -2.52375659484469
H           0.03421965063298    2.09761655915786   -2.69759337251366
O           2.70561613109529   -0.04558525963266    0.37118058440607
H           1.96337979594346    0.52924047102510    0.09766051539683
H           3.30155452315842    0.50127510947740    0.88511783051381
O          -2.61662073922874   -0.36163389380065    0.48889591558897
H          -2.45006302773249    0.35506370026545   -0.16815805203714
H          -2.55124455360917   -1.17966349597111   -0.01258451023487
O           0.85171945119236   -1.91684126663490    0.77812876917955
H           0.44484430738914   -1.71608200773605   -0.09606177980902
H           1.73485749832460   -1.49546226273219    0.72300303097000
O          -0.46541980494396   -0.09427806683202    1.81357837286159
H           0.10722690493761   -0.98123227378499    1.51238228018264
H          -0.08117898453648    0.61030582657285    1.17336244419214
H          -1.41620005485713   -0.23949601541419    1.44460212454692
