    19
        -40.92343660
S          -0.62454916381094    0.52381980257981   -1.47693450623644
O           0.20559010012182   -0.56183159160759   -1.95349614456067
O          -1.89670477990052    0.04180970217178   -0.93682896794108
O           0.06946929396815    1.38391642915844   -0.53156341192205
O          -0.98485821267225    1.42879372960298   -2.71514217561146
H          -1.44351074745735    0.82394657452837   -3.28987704380155
O          -0.31774002829989    1.06386803182242    2.08934596604898
H           0.60501329603973    0.91024441020887    2.32039045160945
H          -0.29454444913844    1.43724165483041    1.18370007968565
O           0.73409316507174   -1.94628305424343    0.20284931332278
H           1.41352060177952   -1.32710286940474    0.54283468550079
H           0.56929517250014   -1.63022762955182   -0.71736421690856
O           2.14537385977274    0.28401070042263    0.70436721641123
H           2.98584877855970    0.40210428423309    0.25974394344505
H           1.47774501021712    0.75791142630043    0.16075395299899
O          -1.37246167847232   -1.08127457022599    1.21526049699049
H          -0.49519527661922   -1.58522684560183    0.87051930772649
H          -1.03175751026243   -0.26494114227503    1.73861835369549
H          -1.74462743028762   -0.66077905322964    0.33282267968439
