    19
        -40.92079120
S           0.04386821410013    0.92223911466915   -1.16426755084413
O           1.17689754716568    0.33617413570323   -0.46168636444331
O          -1.10498598299668    0.01440194660837   -1.16047823232914
O          -0.30025394047742    2.25079995696691   -0.72765488382585
O           0.50746166007101    1.02960211372359   -2.67374393251175
H          -0.19308457934720    1.52665778474909   -3.08452692398443
O           0.24889528480266   -0.28919129428601    1.95817181706448
H           0.82735986440692    0.02831744765958    1.23545754535925
H          -0.40351414721523    0.44070225683560    2.07485264631893
O          -1.33150568080737    1.80016160244041    1.66391166204729
H          -1.30283246960896    2.62213953678662    2.15722766173719
H          -1.03714106665940    2.01760369165788    0.75296642161573
O           1.45809507743597   -2.25640710240355   -0.74237830002770
H           2.23937942584769   -2.52744873748649   -0.25612017786581
H           1.48709365272075   -1.27186802347920   -0.79489530995332
O          -0.81408764598252   -1.90018821003424    0.38061759873776
H           0.02211939972129   -2.28422712187385   -0.04786487442986
H          -0.44403968253697   -1.31718809019282    1.19293885131870
H          -1.07972494064558   -1.14228100805164   -0.30252766399556
