    19
        -40.92246884
S          -0.30538937710790   -0.10493069413385    1.02047204530521
O          -1.14309904424915   -0.32539801129325   -0.23608901529491
O           0.58751886498994   -1.22713351466782    1.19300621105255
O           0.32921777585494    1.17796956449100    0.98616555804461
O          -1.36783329299964   -0.11650353639612    2.14114620894864
H          -1.71094215958166   -1.04498124531594    2.13461364622996
O          -1.68626245378601   -2.62516023076169    1.53446962816346
H          -0.72360012909669   -2.55436521302063    1.42863179793294
H          -2.05884919041017   -2.62638649762726    0.64825811329015
O           0.34943494724534    2.78816424281787   -1.16638973077573
H           0.41093019637592    2.34668750781450   -0.29790044252922
H          -0.37616271495085    3.41140558553651   -1.10380450951763
O           2.29034003685142   -0.35195897708099   -0.71035191288601
H           1.83634645262969   -0.82518175850206    0.00796575342087
H           2.64131563739701    0.45057718197392   -0.31641380560504
O           0.20506270254444    0.34648198590490   -2.18523465628679
H           1.07907336291811    0.01065899689697   -1.86955202976508
H          -0.60387361031707   -0.05347698890317   -1.15662194673072
H           0.24677199570089    1.32353161224995   -2.05237091299307
