    19
        -40.92246928
S          -0.92411222765227   -0.19445260897288   -0.50461378505544
O          -0.88308826883760    1.11221075321422   -1.11893445288265
O           0.42032283984071   -0.88553170542152   -0.71690148380745
O          -1.28428218046693   -0.20463024981590    0.88095140774637
O          -1.89719356272828   -1.10083250450311   -1.28963054211238
H          -1.61814574887528   -0.98947299382958   -2.23290395315934
O          -0.63631402042975   -0.27725590146660   -3.40955696048772
H          -0.64286093271146    0.54632601331566   -2.89503742512199
H           0.25159970239333   -0.63828093442901   -3.33564748950177
O           0.36602964817242   -0.96939779431387    2.86107776723039
H           0.20976129222734   -1.89169205748712    3.07075223346886
H          -0.35968268931672   -0.69248007876357    2.26995805729554
O           0.55497312085123    2.17865074527084    0.90210952321063
H           0.03106254657212    2.00992569507465    0.10030508854430
H          -0.06458217993158    2.13854438978244    1.63497976464289
O           1.99239907308892   -0.04397114263335    0.98354559439606
H           1.18275001647723   -0.55547264856670    0.00356802446951
H           1.69249981331810    0.89742489644000    0.99396895448182
H           1.60886375800785   -0.43961189289523    1.80200967664828
