    19
        -40.92246899
S          -0.43344756181957   -0.05538466980649   -0.97678127664414
O          -0.47628659884742   -1.49700303940897   -0.89723658866248
O          -1.05041224249255    0.53056161781339    0.29028751630809
O           0.86377833801737    0.50280240284343   -1.21214912188988
O          -1.40199389337731    0.42733441419264   -2.07850695982330
H          -2.24746897831371   -0.04639487115092   -1.87685577379244
O          -3.14302622088196   -1.14286641856430   -0.95338362586910
H          -2.34613908904224   -1.68920870724173   -0.85607133807192
H          -3.31520604147164   -0.75531652768041   -0.09060401658345
O           1.62866669066151   -1.61196589480744    0.78925907329602
H           0.88926484695468   -1.79685670455077    0.18512634801319
H           2.34975473434082   -1.30196804100872    0.23565577012975
O           2.17247999530810    2.05910535387366    0.54635463658860
H           1.82848139616050    1.54248196332504   -0.20704634280789
H           1.99981664329086    2.98039808716453    0.34563132817471
O           0.66035282213336    0.49811859448756    2.06253333083614
H           1.07849704669511   -0.36737551654624    1.83349333000432
H           1.28890283386428    1.17967692886586    1.72438050214118
H          -0.34601472117902    0.54386101820332    1.13591322864876
