    19
        -40.92343665
S           1.29520008293281    0.78424268109865    0.74335855903584
O           0.21275582080255    1.33555622323533    1.53016083535974
O           1.65951133955119   -0.56300324639436    1.18443270927393
O           1.02515175126179    0.82805548812557   -0.68502713147694
O           2.56596693750968    1.68473824537512    0.98044109156744
H           2.70802121790698    1.60323252393625    1.91828484053499
O          -1.53856374661069    0.98566178729806   -1.35685668228520
H          -0.58474564822949    1.07286860981411   -1.13698760119210
H          -1.87513340220010    1.87807600142606   -1.44828684899276
O          -1.80989173911397   -0.24231742902157    1.01678646441711
H          -1.16223436661402    0.38881566704647    1.41192212543981
H          -2.00373772516855    0.14440239733942    0.13726988335967
O           0.13175850398893   -1.35337000223252   -1.93576988742311
H          -0.67881134278073   -0.96146651345642   -2.27905228069785
H           0.68230340435600   -0.59350753761320   -1.65355283291700
O          -0.19294978900443   -2.06298105572831    0.48701797131690
H          -0.09740802943075   -1.96603586778497   -0.53159349991866
H           0.64845498802220   -1.56201767980777    0.85445497666899
H          -0.98564824717209   -1.40095030262782    0.76299728788834
