    19
        -40.92246915
S           0.83390648932687    0.02010002846582    0.67075225226405
O           0.47590526800724   -1.06057347050938   -0.34598560898933
O           1.39017280465084    1.15599863552836   -0.02689069063856
O          -0.28618707786942    0.31234305850973    1.51311927025326
O           1.93822723304418   -0.65861919004666    1.51019796058765
H           2.68784204519542   -0.76894808980736    0.87314644933210
O          -1.03057666072786    2.02146314659535   -0.85154714341521
H          -1.44904678118683    2.27389254038374   -0.02467895505526
H          -0.08685734652627    1.90380953019773   -0.64796048098595
O          -2.76968439780931   -0.62701513041398    1.09232791981397
H          -2.89865809052423   -1.42693825559679    1.60453978812240
H          -1.93385587736577   -0.23045492893385    1.40370692849630
O           3.37059170665962   -0.55226196723150   -0.65765447388725
H           2.91052507363479    0.30024560677023   -0.72581360313848
H           2.93905865483977   -1.14576565306111   -1.27872951551851
O          -1.70895931428329   -0.49263957944489   -1.33258171440098
H          -2.30391007453222   -0.63845875305877   -0.55890729816687
H          -1.58872030687509    0.48703721306811   -1.37790523134866
H          -0.48977335765712   -0.87321474141019   -0.83913587332805
