    19
        -40.92246905
S           0.70567338557796   -0.17524425109070   -0.78547867342709
O           0.99016655973527    0.04310365450875    0.69807231065204
O           0.19210322735546   -1.51209552667582   -0.97380346213910
O          -0.12226569413040    0.87287712420815   -1.30090002636222
O           2.11070007026732   -0.07061794923977   -1.41776011996380
H           2.59306692024664   -0.85660472401239   -1.05798732358411
O           2.63237253182725   -2.26864050247431   -0.12967354255346
H           1.71458863144182   -2.44829670650880   -0.39117343283103
H           2.60914281981950   -2.02973156294169    0.80121880730974
O          -1.32035278116896    2.73128300904175    0.22806512915267
H          -0.76694792840299    3.51282159303148    0.27090821824309
H          -0.93906589175237    2.15964186466733   -0.46528722539187
O          -2.26819136892210   -0.85057347938811   -0.08048060663793
H          -1.48123483659370   -1.28787561036149   -0.44848136825006
H          -2.57540813162749   -0.24562882936817   -0.76037705969970
O          -1.13232362775516    0.61411577683238    1.81072089585373
H           0.08406980694747    0.29627373868229    1.26916118981279
H          -1.30402684126444    1.50887568817138    1.43150571751622
H          -1.72206687159709    0.00631668292124    1.30175057230076
