    19
        -40.92246923
S          -0.01278993794646    0.10181586655113    1.06555418621880
O          -1.42545968730447    0.40161318740767    1.03706400929421
O           0.24332734255178   -1.16197933808564    0.24872409043753
O           0.84366220109134    1.16472093871360    0.63389551934187
O           0.39215812095811   -0.33038301093387    2.49173056017039
H          -0.27950143435414   -1.01654225668697    2.73261347116847
O          -1.30720898591975    1.42977235574762   -1.45656387434851
H          -0.77097838264425    2.21604833824481   -1.32692067729347
H          -1.56470229310842    1.13282494544843   -0.56696942505965
O           2.38835666172698    1.05147009141994   -1.56357562178594
H           1.91860308695817    1.24383993174451   -0.72982267941292
H           3.26970692113369    0.76424631114857   -1.31941999493175
O          -1.66299990085019   -1.91942793091784    2.37656387968798
H          -1.44688190836971   -2.56880569165490    1.70147545099198
H          -2.02777370485373   -1.14893075854033    1.91142016164801
O           0.33967468844326   -0.53140238822656   -2.13112276464275
H           1.18268275283744   -0.01901411238397   -2.15165554438818
H           0.29234563637215   -0.96349617927431   -0.83203314079099
H          -0.37222118672390    0.15362967026243   -2.12095760631363
