    19
        -40.91793118
S           0.91561371747107    0.82861584927582    1.24886207027385
O           1.14005317716029   -0.61335781303496    1.05755350698250
O           2.00660711668896    1.61791535912961    0.72504825557387
O          -0.38413605410494    1.22524167057927    0.74772216585992
O           0.87857296819573    1.05097782277467    2.81407917751977
H           1.78503558154475    0.94808743063552    3.09106970490441
O          -1.48451220916607   -1.83075687015716   -1.41603633170238
H          -1.55374250674386   -2.76818884457528   -1.22430607356857
H          -1.85531115533972   -1.35783656629302   -0.62130811098627
O           0.94490289749009    1.46916991373607   -1.66591508113368
H           0.07644897893913    1.74333345634388   -1.34830308692672
H           1.54097279082010    1.67217747233322   -0.90971432040895
O          -2.28804917724663   -0.56271784817898    0.72460298458209
H          -1.55572226982950    0.08988119909395    0.83235815650604
H          -3.09703341361325   -0.04761365032526    0.71442305975566
O           0.93081924370207   -1.05066012735635   -1.35403522819398
H          -0.04247346480122   -1.38671269570305   -1.45973704994991
H           0.95879867601100   -0.06621673332944   -1.65961366643276
H           1.08315511281434   -0.96133901494833   -0.29675014264287
