    19
        -40.92007395
S           1.04189525873772    0.32425832811123   -0.87126260542138
O           1.28475006646987    1.74947890059219   -0.87288512980212
O           1.24215159984938   -0.25272095867636    0.47340988516558
O          -0.22424550594841   -0.07962452694153   -1.42347556388471
O           2.16818384470883   -0.33446557490222   -1.77182997084734
H           2.93282281953704    0.21069252034703   -1.61209659442445
O          -2.01001995163764   -1.16519065687383    0.16831440603507
H          -1.62440571343714   -0.71336876239341   -0.61533146729463
H          -1.44399728664264   -1.96813337212189    0.24683973791523
O           0.16910065867214   -2.68148171630078    0.02057625725186
H           0.69974200725991   -1.89356309638437    0.24213200357419
H           0.33341276263577   -2.85441036839706   -0.90855555727782
O          -0.78096546871552    2.56281690515101    0.49207400528128
H          -0.54590493076652    3.39093983877173    0.91643639838366
H          -0.03225323960551    2.33690284583617   -0.11409916564896
O          -0.84241437257780    0.34232699651641    1.73997849401316
H           0.08571260343792    0.07270067937243    1.38938494190717
H          -0.96206652815065    1.27849561743501    1.35386343829956
H          -1.49149862364373   -0.32565359906937    1.14652649683533
