    19
        -40.92079103
S           0.76470467362680    1.12716172597115    0.59248722074565
O           0.37659128006914    1.29369222224347    1.96927406578173
O           1.55401378923482   -0.08675572202529    0.37466394514532
O          -0.33801923705007    1.21213401588326   -0.35489367969009
O           1.71682491705535    2.33647463536517    0.22341453082888
H           2.35737622960169    2.33619712971353    0.92784964620068
O          -1.68414409066016   -1.07108390598209   -0.06883726641102
H          -0.50132762394305   -1.60332118526575   -0.73196718920843
H          -1.47224936761278   -0.12323290127009   -0.18935330922516
O           0.17881370336153    0.31049319086552   -2.76308019232563
H          -0.60331595343397    0.43500955805596   -3.30442007449396
H           0.03643685572775    0.83348560949321   -1.93898799115157
O           0.46478750105787   -1.67805595460880   -1.17683744457496
H           0.41468330794900   -1.05998777350670   -1.98032341319840
H           1.03903485180883   -1.10861182345513   -0.50039016264475
O          -0.91678119497526   -0.96051901875700    2.45088092293991
H          -1.47097028686112   -0.82395729822832    3.22166592385816
H          -1.53911889371482   -1.22314607908359    0.89443290062872
H          -0.37734046124321   -0.14597642540743    2.35442157679483
