    19
        -40.92079118
S           0.76023749095077    1.13613434317703   -0.58233844515584
O           0.89850516288706    1.00270161593821    0.86922371559731
O           1.90036977656119    0.62073920365557   -1.29559639418088
O          -0.51855132223942    0.60844222487344   -1.03735320711983
O           0.68999059528310    2.69061101609790   -0.87138563352994
H           1.57592513314819    2.98830442037548   -0.68986195941382
O          -0.59552926282191   -1.89741383547932   -0.13021353381675
H          -0.77185739304113   -1.20726897334332    1.13943541459209
H          -0.68558346351437   -1.11214985874036   -0.70724758618623
O          -0.84572968942120   -0.43770607160455    1.87433167068851
H          -1.64899559496533    0.10813527778188    1.57937043989264
H          -0.04391184566243    0.18453666935697    1.59047948481736
O          -2.53998749507709    0.98783916637862    0.59037479863909
H          -3.32584053095633    0.61758688944006    0.18338731385630
H          -1.84794938599350    1.01943613004544   -0.11177677246720
O           2.02249745960841   -1.87379820523646   -0.43188447648729
H           0.36409309496424   -2.11863351019134   -0.18169891499195
H           2.53518259975132   -2.37999125032882   -1.06495543788523
H           2.07713467054996   -0.93750524219516   -0.72229046684733
