    19
        -40.92079119
S          -0.68963154356267    0.79629891212964    1.04784298739040
O          -1.90099521280694    0.12056672696520    1.43509399031883
O           0.51361754489880    0.10410032183811    1.51391034814698
O          -0.60171711176602    1.09929131235906   -0.37396509254320
O          -0.68737967219057    2.20510878591892    1.76925329086079
H          -0.87457416563001    1.98808294368827    2.67710085950019
O          -1.54791396122777   -2.28539271132791    0.39905525555434
H          -2.40725300104352   -2.70567379294328    0.32974642361824
H          -1.69500203986746   -1.43958427541383    0.87517830189745
O           1.78819310059202    1.73866612139543   -1.24460175247372
H           0.86452761522632    1.70406542397710   -0.90024526654559
H           1.72357214830764    1.93331906834608   -2.18175836807008
O          -0.12263339080083   -1.24106000019488   -1.55755509455367
H          -0.48091854823140   -0.35139187749555   -1.36280535542214
H          -0.62529753272442   -1.83446002481733   -0.95163501037702
O           1.97033899062514   -0.64863553315318   -0.34006771395072
H           1.45204907905276   -0.39843017743585    0.54330506943482
H           1.17833986027965   -1.04990242766776   -0.93037889328132
H           2.14267783086924    0.26503122383048   -0.74747395950469
