    19
        -40.92071432
S           1.01680872602913    1.02093961723799    0.34649704015013
O          -0.37862257321156    1.01328662275909    0.82862686069911
O           1.94698840174504    0.68768001216865    1.40066385576865
O           1.14819991037105    0.20214900014491   -0.83653568097119
O           1.31632283381395    2.51515726954185   -0.07083918792193
H           1.63937626077266    2.91542881586708    0.73141049213330
O           1.59001691933657   -1.88369080072972    1.06252327786984
H           1.96870089743711   -1.99403872704552    0.18537245187756
H           1.84667414569054   -0.97222026672453    1.33889451239685
O          -0.95412124991276   -1.13255241771888   -1.67450301902762
H          -0.08174719169886   -0.67645453067225   -1.63773882409465
H          -1.59608807461629   -0.39499697079719   -1.74763455567857
O          -2.20873415289303    1.15342698708301   -1.12775822454193
H          -1.54137814663972    1.26873142793323   -0.42234364109358
H          -3.04998010740617    1.42249555314247   -0.75577247462506
O          -0.89715765230586   -1.44911156203998    0.77942522010456
H          -0.80750342167931   -0.44155106652361    0.95318913367460
H          -1.01387716936663   -1.45997455101094   -0.31333628736801
H           0.05612164455598   -1.79470440260619    0.95985905066292
