    19
        -40.92136405
S           0.94114619484770   -0.71577091761541    0.72492489692610
O           1.48494185028059   -0.21138061264844    1.96136470726096
O          -0.49805960148570   -1.01524139748811    0.82834425743023
O           1.21195696517484    0.11423626118630   -0.42716328359226
O           1.63426494965150   -2.11706424035905    0.44785966760759
H           1.84020284418207   -2.45147119106514    1.31621259627045
O          -0.79535621323453    0.90511306537600   -1.91433545693650
H          -1.10598677191965   -0.00276760835151   -2.12676529931617
H           0.11432240147357    0.74441044407660   -1.57376077230728
O          -1.00936341932639   -1.74240762661142   -1.70466518772529
H          -0.24444478613828   -2.23478981360898   -2.00737400725592
H          -0.89740087474531   -1.63479566085811   -0.74129627507645
O           0.51123492691042    2.17732284117207    1.42403990729469
H           1.11147023246100    2.45857323355135    0.72788110973785
H           0.91256677233589    1.35970776797241    1.79688829221189
O          -1.61199264876454    1.19292223301052    0.40712596811535
H          -1.38283777567043    1.17891012582330   -0.66313249769495
H          -1.34007346936559    0.24023081599952    0.67770569456298
H          -0.87659154666409    1.75426230044616    0.84614569249005
