    19
        -40.92134955
S          -0.55906123870717    1.05538064222044    0.17134802849939
O          -1.01867695451815    0.57734537575592   -1.13114886460793
O          -0.64283516740579   -0.06285624889340    1.14395022486310
O           0.76515830019180    1.61876495174188    0.13302102986539
O          -1.54460947371178    2.14724927907757    0.67030662387762
H          -2.41376717662618    1.69317080847460    0.65041700398337
O           2.91513423725934    0.30919471893270    0.79204669828031
H           3.51008921275061    0.40801971922242    0.04502179775681
H           2.17806547034214    0.95155246171915    0.63923522093549
O           0.68338223601100   -1.26015687343450   -1.81818012508970
H           0.20628929814810   -1.90081240791379   -2.35004048564161
H           0.06103631031309   -0.49970966553657   -1.67446723052569
O          -3.28744651518472    0.21448966268979    0.27762109186699
H          -2.83962675165024   -0.34246797734365    0.92385564139512
H          -2.74246665286506    0.16869521448770   -0.52407971276600
O           1.23075945591868   -1.57189350802046    0.64951526187946
H           2.02743017107100   -0.92670309883783    0.78658365832261
H           0.38518580666187   -0.97314661414034    0.97648463162485
H           1.08595943200277   -1.60611644020260   -0.36149050452007
