    19
        -40.92079000
S           0.76833776798201    1.01282877012195   -0.77096128613529
O          -0.11435587393113    1.58011136422716    0.25054881342764
O           2.14501098018566    0.97171610281460   -0.34999177821362
O           0.25483847351636   -0.25917026714792   -1.26009040208671
O           0.68367417601909    1.99410602003607   -2.00969565319875
H           1.11680836449338    2.78180536676469   -1.69603463756975
O          -2.35703641432261   -0.43631339168050   -1.42506909856224
H          -2.57748132087690   -1.30418001812372   -1.76946793175818
H          -1.38784019791815   -0.31679818104231   -1.56360831771176
O          -0.04254433160723   -1.76596072402840    0.91941810458448
H          -1.14745694668605   -0.84493580694954    1.14671222855702
H           0.17180133840329   -1.47408791331750    0.01024665576040
O          -1.82259107959507   -0.02584809332299    1.04400411449759
H          -1.15329524011829    0.75491674016695    0.81293290152388
H          -2.27191563735616   -0.18809231570157    0.14835584042664
O           2.01845641912030   -0.43596929011851    1.88239021500454
H           2.11439578793184    0.16167014354775    1.10922382813819
H           0.70702229437428   -1.42187429824117    1.46024174259359
H           2.89417145038582   -0.78392419800368    2.06084467072285
