    19
        -40.91898047
S           0.44693511266744   -1.56236127817258   -0.16748747190352
O           1.31713711653791   -0.52148461536609    0.35677901746291
O          -0.11574399140417   -2.42356533249055    0.83879622372937
O          -0.58250553425010   -0.96926920964683   -1.03890136417981
O           1.34438573801187   -2.45756702694528   -1.11600385451747
H           0.93412951776953   -3.31828430398199   -1.11139778247055
O          -0.42683931087117   -0.22722318850192    2.32943245018657
H           0.43632687236778   -0.12180239997386    1.88631154594397
H          -0.58032063835240   -1.18393967859035    2.25477704826488
O          -0.42029052602657    2.67757989336696   -0.30318400766250
H           0.21074304209706    2.21285596029797   -0.92395927960868
H           0.11553095320551    3.04590054444179    0.40235970210781
O           1.16377635379464    1.13992509041154   -1.69436299143653
H           0.59957279101698    0.59065966078836   -2.24718251979768
H           1.42147137483422    0.55569698946143   -0.95127978289951
O          -1.78410291365532    0.66699580480536    0.38303877881579
H          -1.32138427806970    1.56384579963626    0.11469094469779
H          -1.39441578339460   -0.04388171225055   -0.29521791198541
H          -1.36440590628986    0.37591900268986    1.28279125523106
