    19
        -40.91892663
S           1.06549217484726    0.83380797269016    0.47705050233448
O           0.63306911672493    2.20209577046129    0.28997497659221
O           0.26881250502898    0.07166042492779    1.40635064281608
O           1.18990178131556    0.12957899735978   -0.81299219664092
O           2.53100293143682    0.88798735529065    1.06884175096978
H           2.95286766308654    1.59951923038242    0.59607375056799
O          -1.79340456283984    1.92569528753174   -0.59631422494145
H          -0.91812297224107    2.11819278793831   -0.17222513872475
H          -1.97573310993943    2.66157447737706   -1.18482720944788
O           1.13527297001048   -2.34023368151117    0.55588333594534
H           1.05166179797660   -1.53369840947229    1.09173927527980
H           1.55168084780551   -2.04888969299229   -0.26050793402498
O          -1.49051305717247   -1.84987516436487    0.52264746298735
H          -1.30595644115388   -1.17028597287678    1.19022089771300
H          -0.65781676002452   -2.37390810899212    0.50001954360876
O          -1.14946885910473   -0.37322214078099   -1.46689232657380
H          -1.56188582968651    0.52541121806956   -1.20233588797016
H          -0.12234216672085   -0.20678383967420   -1.31176641985294
H          -1.40451801933061   -1.05862652134392   -0.69094081064154
