    19
        -40.92217193
S          -0.59426578884474   -0.75391854269932   -0.99111806634364
O          -1.17249705037532    0.38029890880228   -0.29190653304302
O          -0.46244731792638   -0.60867803274542   -2.41246001095634
O           0.64362956100403   -1.19617039547371   -0.33703871959988
O          -1.63397501897553   -1.94470073775841   -0.74511934803116
H          -1.62857167962847   -2.44141982353459   -1.55809660720239
O           0.68343818961248    2.16523807123049    0.45456566797263
H          -0.22572430909635    1.90688389302089    0.22081207313389
H           1.18253904711045    1.98840129557237   -0.37318635374459
O           1.57263527355429    1.04291151621904   -1.80197869846672
H           0.82207132676917    0.55684995428513   -2.18695733767691
H           2.26783551451031    0.39070643624386   -1.68730163594241
O          -1.41538886301981   -0.45739100721706    2.17262193955454
H          -1.69082995692049   -1.37582104415409    2.14595906425096
H          -1.54532481623566   -0.10743903892766    1.26131069961342
O           1.05628643736261    0.06377235950626    1.75115985660609
H           0.14833470533057   -0.10891177480127    2.17036580653002
H           1.00081995135519   -0.54141658062672    0.88753545513845
H           0.99143478440901    1.04080454305788    1.32083273820833
