    19
        -40.92120565
S          -0.37603705739884    0.74100294145568   -1.10013433239934
O           0.32613629610841    1.42790570369706   -0.01536531245109
O           0.37446584367926    0.69644667762495   -2.32464735622205
O          -0.91089469546431   -0.53458952605900   -0.65272949627760
O          -1.66971085268557    1.63322043346401   -1.38673897518938
H          -1.38285496366818    2.25719020165801   -2.04684082910545
O           2.31984566240518   -0.68590428733093   -1.13017126158351
H           1.65935742922803   -0.13328957032844   -1.59101318355898
H           2.89616005446767   -1.03994771697228   -1.81075838197371
O           0.90017673926967   -1.89812718130875    0.76958763924734
H           1.63441370431556   -1.59593089030013    0.19355995602348
H           0.11238767648648   -1.76711226760805    0.20878440751734
O          -2.16377336178944    0.05456406377758    1.57002076026128
H          -2.62211573622314    0.88686099929847    1.44040931599902
H          -1.88039091172235   -0.24427913528493    0.67521770434544
O           0.34235837491740    0.14048728934540    2.09649789011666
H          -0.66787231359091    0.07347960058816    2.15666137230195
H           0.65918673696351   -0.79087835080063    1.68205649484944
H           0.44916137469959    0.77890101508808    1.26560357808952
