    19
        -40.91893423
S           0.66539570351976   -1.60286050004896    0.05961350079551
O           0.13523198611243   -2.28622961446612   -1.09301400135877
O           1.53104174208216   -0.47835693904981   -0.23669292267066
O          -0.38908649958621   -1.22135027104775    1.01155691287920
O           1.56881840358751   -2.65620000312642    0.83019149849825
H           1.12135564954080   -3.48105172584382    0.66743663028922
O           1.48859137937698    1.82409563364745    0.95004293264795
H           2.13832831042900    1.81378869989202    1.65524896670328
H           1.61528364222035    0.98134770832867    0.44196591351579
O          -0.39855011256069    0.06686916818918   -2.16089577791896
H          -0.32892070002937   -0.87560761845365   -1.90563442966360
H           0.49155324584552    0.41029609570150   -2.03824370841122
O          -2.13345059021721    1.42864420591084   -0.74300132260319
H          -1.49970078467833    0.96919084842673   -1.35741702867626
H          -2.95391935865701    0.93374113944037   -0.78751957319137
O          -0.90530445264547    1.14384650307644    1.44906406690446
H           0.01723293136972    1.57067835999040    1.31679386155670
H          -1.45868967420519    1.36138109207704    0.60074540077529
H          -0.70521081154624    0.09777722745024    1.33975908987614
