    19
        -40.91689888
S          -0.81357650491894   -0.86339568668253    1.40178199677148
O           0.17443950176773   -1.45654888023160    0.49316643455211
O          -0.64824702525055    0.60221125839511    1.40251484158389
O          -2.14841693314378   -1.29669503105360    1.13849382241643
O          -0.41300799631330   -1.31305013292216    2.86137774649131
H           0.38187150728999   -0.82403133841677    3.05922648709055
O           2.34107123478347   -0.10272765165094   -0.01463964879910
H           2.90848781361940   -0.71850210111810   -0.48266924358518
H           1.53302691269647   -0.61715092115976    0.23032739773262
O           1.34470168671084    1.85545647019296   -1.45378784266995
H           1.78046031720370    1.12553830853830   -0.93693830979548
H           1.64516339784731    2.67812195660855   -1.06257208962486
O          -1.52613522018132   -1.03894691867596   -1.48727692698686
H          -0.77105739683014   -1.38768446805339   -0.97078029273773
H          -2.28710096065166   -1.27153316618655   -0.93679819753055
O          -1.08590371113532    1.38681485217008   -0.88696941293454
H          -0.13368889558327    1.62639170893470   -1.21022948020370
H          -1.32636031530802    0.46993416959925   -1.29557790260246
H          -0.95572742260294    1.14579756171751    0.15135059083117
