    19
        -40.92037961
S          -0.23758430847782    0.20412019329368   -1.03401375888659
O          -1.26803197767366    0.63677790674779   -0.10443768263902
O           0.94141353327583    1.01002480611008   -1.02757265129096
O           0.08868151773324   -1.25508671346164   -0.77130723419562
O          -0.84030836670553    0.18996703393793   -2.45412635763366
H          -1.76255239364990   -0.15585285512415   -2.35263913971410
O          -3.21812011411256   -0.38366152069423   -1.56865473845465
H          -3.90094231669241    0.25545253288356   -1.78693589369934
H          -2.75194220414671   -0.04540640528606   -0.78120029679005
O           3.19284039555460    0.43451084344357    0.33035315612787
H           2.50345587427408    0.71029599116540   -0.30211742637286
H           3.34980419186704    1.19205900212406    0.89793327758126
O          -0.12530469147005    0.50813227294042    2.31774614694498
H          -0.57363611300052    0.69004812783392    1.46922107492234
H          -0.81584811301066    0.31667529916450    2.95553203950497
O           1.47784991867293   -1.35071410248720    1.27298079881930
H           2.27363541235974   -0.83698022289807    0.98988666383182
H           0.96101624494313   -0.73617926199898    1.84127655108242
H           0.70557351023480   -1.38418293762068    0.10807548086617
