    19
        -40.92159003
S           0.24443123032788    1.32683020432875   -0.59879524264183
O           1.40195022075726    1.51079553656029   -1.43129941450996
O          -0.70077512731800    0.32455929184382   -1.06751320927095
O           0.59802586274639    1.08566340137014    0.80624296289910
O          -0.56154665989143    2.69125271219321   -0.61958461536296
H           0.11455001515395    3.36018921723961   -0.66821496270270
O           2.55003885641065   -0.66104895421077   -0.40359767108721
H           2.26415483354278    0.12094145291637   -0.91515241593050
H           2.79208347845428   -0.32354760953011    0.46196932469425
O           0.30251059520381   -2.04856550258099   -0.37354559321749
H          -0.14024162394325   -1.36729340718456   -0.91695434270924
H           1.25338310995201   -1.78817477501966   -0.41185278170820
O          -2.66902900663290   -0.21988633890641    0.57107803433731
H          -3.26884586591675   -0.83436276292170    0.14334940762480
H          -2.07105562584472    0.12729004620093   -0.13218066294046
O          -0.49701444940517   -0.94413368580551    1.71028030627207
H          -0.00548032002706   -0.04384809754715    1.46437649268929
H          -1.46054213092704   -0.74077444117955    1.46240724122478
H          -0.14659739264156   -1.57588627776780    0.91898714233944
