    19
        -40.92158999
S          -1.16015649401890    0.88153045233145    0.23577891729144
O          -1.37460083033171   -0.49897394291904   -0.21750971986652
O          -1.60933898050841    1.09080071467863    1.58529963911557
O           0.20703101655380    1.30162387324246   -0.03245087502812
O          -2.05906222221658    1.79365008328233   -0.69759378098102
H          -2.91596239038320    1.77899440725782   -0.28244391675913
O           1.79062572975121   -0.62890455371900    0.90683968690551
H           1.46706358721216    0.27165475623544    0.70683870502657
H           1.18978575379346   -0.93192327673974    1.62845034034847
O           1.13384080199393    0.67493357695144   -2.39982098088504
H           0.73214869925419    1.10023237049535   -1.60581011685813
H           2.00889513546936    1.05457284450770   -2.50207625469497
O          -0.33266683111070   -1.09665273388095    2.40651227814101
H          -0.90917103071078   -1.77049488567821    2.03861060032244
H          -0.81395866959317   -0.25393795103028    2.29172288800833
O           0.68860408680808   -1.50879910601098   -1.14525195275293
H           0.93861571941713   -0.79235593222199   -1.81988755544068
H           1.27902886110222   -1.27775699609727   -0.28098349471750
H          -0.26072195246553   -1.18819369067549   -0.81622441715536
