    19
        -40.91898044
S           1.19115899259365   -0.25097046765627    1.08827690414103
O           1.75451357422741   -1.57352143911193    1.01495638420974
O           1.43506769854215    0.53191832588791   -0.13586000677087
O          -0.22313414784565   -0.22307203671102    1.42517769046822
O           1.94248634697190    0.52392443207219    2.24657040211373
H           2.82029069959645    0.15216916367802    2.26863880888241
O          -0.51377751113994   -2.31837944386370   -0.17525862669789
H           0.37907841213291   -2.56865391252248    0.11763574699450
H          -0.79544746441968   -1.70340968822915    0.52726845965979
O          -1.95793572127456    1.04817694844642   -1.58380167346945
H          -2.74648801941430    0.62579041208611   -1.23698333924831
H          -1.58591650835016    1.60500445893074   -0.84149923637930
O          -0.77690426125556    2.17274383103598    0.45329432561770
H          -0.67093984806470    1.35214555115056    0.97797446867187
H           0.11533841240355    2.39288654924213    0.16857789854771
O           0.00805182662635   -0.50938918813791   -1.87405017906402
H          -0.25362880037781   -1.34886202622264   -1.32867420766615
H          -0.82513941078599    0.11950657588313   -1.87260939168299
H           0.70332573984997   -0.02800803595322   -1.23963440832962
