    19
        -40.92071435
S           0.20343921824267   -1.37691452306523    0.50865571533479
O          -0.41154188452149   -1.03147687904115   -0.78836551908523
O           1.51825386463661   -1.95136005076944    0.33902252027082
O           0.16603100926065   -0.24433994633845    1.40479805133450
O          -0.71201813222785   -2.50614419741018    1.12788148352340
H          -0.34265144693715   -3.31411228427584    0.78303726069338
O          -2.63308562551567    0.45666366724633   -0.57831676079058
H          -3.12666536412540    0.40819617771290   -1.39829302465041
H          -1.92552644159624   -0.21578291126980   -0.63726474215439
O           2.64974479923969    0.40261345207117    0.15408620894715
H           2.50330581381223    0.73304809736452    1.04532556010601
H           2.40909314955382   -0.55309017047209    0.19285995732250
O          -0.77755863555759    2.03460855684479    0.50043024553583
H          -0.48708402783482    1.30605753884411    1.09657786066598
H          -1.65128308130933    1.73069584434456    0.17507245992891
O           0.70166190054367    1.17042678513496   -1.28538860592185
H           0.24867951377734    0.24950021590228   -1.27764539955109
H           0.07595524957073    1.71346511835786   -0.56250218157203
H           1.59125012105313    0.98794552881547   -0.79997108991796
