    19
        -40.91439974
S          -0.50848283320607    1.09570586081917   -1.17330312456188
O          -0.97950282997343    2.27295030105951   -0.50520437952125
O           0.91447381536791    0.80508083832550   -0.91315988761009
O          -1.30208910670224   -0.10810284712992   -0.96295468547227
O          -0.59683233194632    1.38291887622400   -2.73362980002964
H          -0.49349348245309    2.32500843447659   -2.83882515980200
O           0.94644674940138    0.23807134914557    1.76852777546193
H           1.11313091119057    0.63695628027219    0.89877133493553
H           0.01980853590882    0.48272732795938    1.98493956613803
O          -1.65137050667274    0.87384516504375    1.69224197387124
H          -2.07518679831881    0.17301408575058    1.18830940903921
H          -1.53057704947651    1.59834870301530    1.05531142837479
O           1.05423770402835   -2.26444266563709    1.21113144412603
H           0.99999412932660   -1.31595180611423    1.56306546095047
H           1.93056532263931   -2.58841787711294    1.42862299967336
O           0.63886367499348   -1.62713938741472   -1.16654671878527
H          -0.33424950226077   -1.30323641393707   -1.15986147096742
H           1.03279350202368   -0.66359819454901   -1.14914759343774
H           0.82147010612154   -2.01373803022649   -0.18828857237065
