    19
        -40.92267746
S           0.46993667439627   -0.27826256191721   -0.91409162683857
O          -0.23238105955644   -1.55201000454400   -0.86358515313128
O          -0.49577821465056    0.83408605166147   -0.73211622062726
O           1.54037442736123   -0.18492559862810    0.05233931519903
O           1.07988441955687   -0.09361546109312   -2.33156703208208
H           0.30208747835206   -0.20514852394118   -2.92231502734273
O          -0.92542475011645    0.95699929825724    1.68137415196347
H          -0.83834998729485    0.98936762306895    0.59788005521482
H          -0.88963053884783   -0.05849402682280    1.85520095052769
O          -1.40490032293136   -0.51798808653039   -3.05772750142250
H          -1.75694039761975    0.24947449759982   -2.59524439187563
H          -1.30022690779224   -1.20435397193050   -2.37955080284711
O          -0.52619108658654   -1.55102359669113    1.74092189071166
H          -0.49928994407547   -1.71184625422468    0.76753499365896
H           0.36931398711253   -1.71357752321578    2.05008622300344
O           1.52817805578244    1.51709832026970    2.03011575261023
H           1.87594973015307    2.35753462816896    1.72561792121545
H          -0.00957663057497    1.30408234028069    1.98308224742649
H           1.71296505732998    0.86260285023088    1.31204423463905
