    19
        -40.91966046
S           1.01203969421244   -0.67068098436723   -1.20695616482415
O           0.50417490591142   -1.91406257163493   -0.60718958711635
O          -0.00818559340260   -0.04266227938204   -2.03228600768748
O           1.56460035613440    0.21486596155900   -0.21217492522204
O           2.18371284338289   -1.09920375034057   -2.16686311181458
H           1.74630637245740   -1.65696153140657   -2.80282484247134
O          -0.02704591146009    2.25864355622260    0.73749304028345
H          -0.87276405795611    2.04111669036550    0.32892422173873
H           0.64723345148309    1.81351559700074    0.19849246765513
O          -1.95360539923707    0.54382299397337   -0.47342095815384
H          -2.78652257221819    0.42030415773694   -0.93255592365209
H          -1.23254131288404    0.37085935568648   -1.14634362193810
O           0.67073590959521    0.29063497677961    2.35491859588266
H           1.40519991460736    0.11408974571604    1.74380804542544
H           0.35420861295227    1.17942225513068    2.06129170026317
O          -0.99547806363249   -1.16603996656141    1.20380926024353
H          -0.32479802268074   -0.58869432389666    1.81462969692952
H          -1.52544444515987   -0.49740863894136    0.66233363081746
H          -0.36182667214902   -1.61156123364673    0.47491449364442
