    19
        -40.91832007
S           0.94965021108903    1.04864417792727   -0.25469030046521
O          -0.39594915382111    1.13772346874984   -0.89428630183102
O           0.90907201788674   -0.00434026520916    0.75815738711287
O           1.99246428865370    0.84123359564956   -1.21818755523590
O           1.17613777117893    2.40413082994050    0.46685739414329
H           0.39792514962785    2.50113093336594    1.05167966595293
O          -1.23766697096010   -1.31552755902049    1.23883058933669
H          -1.04233649030856   -2.09440029351749    1.76259762542885
H          -0.39522479054876   -0.78382171979831    1.19084295098508
O          -1.05463776781650   -1.17624493419917   -1.31951249769613
H          -0.85081928440363   -0.09477522689884   -1.24250539091276
H          -1.29506141329395   -1.39691187217105   -0.35910486626709
O          -1.25064371186261    2.00633569955632    1.49516659032179
H          -1.41894142058150    1.19524201471508    1.98247638790649
H          -1.34155447670405    1.78167613336021    0.55562045893207
O           1.42886701916703   -1.71070457185612   -1.49841144947137
H           1.76842627000667   -2.01538397274956   -0.65211749066073
H          -0.10393769432703   -1.53728187293522   -1.48394174173988
H           1.76423044701521   -0.78672455491001   -1.57947146583943
