    19
        -40.92267752
S           0.91008950049232    0.25635462149932    0.49037610049309
O           0.73531443765849    0.03462956827966   -0.96679343762161
O           0.32311927798157    1.53388511655528    0.86684104804943
O           0.37267937383655   -0.85538040614570    1.24122240059495
O           2.44321937382264    0.31228558790117    0.73837687162292
H           2.72031862493944    1.10468811189788    0.22686824653923
O           2.24504500173626    2.43189792719674   -0.79437677415065
H           1.47902122794630    2.56336343147385   -0.21301310678877
H           1.90985272683464    1.94862093743753   -1.55655018572580
O          -1.57823887971141   -0.73403714429630   -1.25217932993204
H          -1.98756104958937   -0.13922317902624   -0.51630554929077
H          -0.54953511824252   -0.38207685889871   -1.26098460607047
O          -2.15580031410635    0.68806678321257    0.77186683285963
H          -1.29551454573552    1.16405216118648    0.85851533538909
H          -2.21014765465696    0.11862085827647    1.54431029651971
O          -1.00748850717829   -2.77853005585289    0.14398031738938
H          -1.48737451373019   -1.65816446111852   -0.81842521995438
H          -0.40608780280469   -3.44118964765781   -0.20127698925774
H          -0.46091117949153   -2.16786336192809    0.69754771933956
