    19
        -40.92267746
S          -0.45005792143203    0.44129472729279   -0.85744684194831
O           0.76531209015837    0.93083090868708   -0.16021800638491
O          -0.13105385193960   -0.75814795588631   -1.61749806090771
O          -1.52984589535081    0.24348384839408    0.08252368972614
O          -0.86652050546575    1.56818936405166   -1.84326748881589
H          -0.10372307523845    1.61346076954223   -2.46162095385323
O           1.45669146252513    0.98899311500034   -2.91494546200741
H           1.96673636487950    1.21682710067782   -2.13093128833538
H           1.11160307812807    0.09695132402853   -2.74996434288847
O           1.00913329800740   -0.48643354593185    1.82897204413711
H           0.68169052643106   -1.35889439220121    1.38825508960603
H           1.02519431313377    0.18846594628420    0.97670032784947
O          -0.06641746015604   -2.34319835068517    0.46916981228344
H          -0.99474234197444   -2.40438607477387    0.71098831310675
H          -0.05500150482238   -1.89676896362099   -0.41095181008724
O          -1.21584780846013    0.40880946087019    2.66756828340849
H          -1.29212399084641    1.32621230949235    2.93699761488022
H          -1.51301850891127    0.36963723463922    1.72510967845217
H           0.20199172133813   -0.14532685586549    2.36055941177952
