    19
        -40.92079120
S           1.10501395905750   -0.15676862261646    0.98111107893842
O           2.36165319669101    0.07369811574855    0.31634126860562
O           0.16458255015258    0.95106830002994    0.88364128953106
O           0.47824570121504   -1.41666422759833    0.57672179460841
O           1.41203105166606   -0.30013017354496    2.52715453161056
H           2.12227402912580   -0.93370434518990    2.55293714592067
O          -2.32039233624483    0.37890318287168    1.49752410661615
H          -2.84115853850628    1.18020556060254    1.41365453519709
H          -1.37378927744601    0.65431833506774    1.46528332836064
O           1.67197804952062   -0.03802175329235   -2.23244319977176
H           1.99943760667637   -0.07006410995875   -1.30747078407731
H           2.35295605098366    0.40603629832774   -2.74131211860529
O          -0.71910199486379    0.89304500872693   -1.63066548233374
H          -0.39374483971797    1.21140879889170   -0.76428984721951
H           0.09416940851932    0.56354930003788   -2.08047084814989
O          -1.72273588865954   -1.09341187772709   -0.50890124293167
H          -2.18159988802184   -0.62704605066488    0.26719365961050
H          -1.40401223892271   -0.29375745889963   -1.13882127564966
H          -0.80580661122794   -1.38266428081291   -0.07718794026096
