    19
        -40.91873335
S          -1.40037757532405   -0.30387957878668   -0.93349805531075
O          -1.04167065192932    1.06000593765437   -1.29637055681403
O          -0.26794612507163   -1.20232406045092   -1.07856929485354
O          -1.99510243129659   -0.39500756692586    0.39368648726272
O          -2.51743967248246   -0.75849604505109   -1.94719611400256
H          -2.17753971681941   -0.46656508515257   -2.78728661523224
O           1.29714493207737   -1.76355369992187    1.02025479881510
H           0.67663199426742   -1.97995073633078    0.29641727018816
H           1.96814710808284   -1.20842566349110    0.56110615110839
O           2.16200029968178    0.05526490179355   -0.69912318834416
H           1.36712123353885   -0.29483264523309   -1.13494496099775
H           1.93423837588725    0.94262935925012   -0.40268464432797
O          -0.16942605977726   -0.03147057489216    2.03300267108627
H           0.51275594159902   -0.81723985611502    1.72497931382797
H          -1.02876404832584   -0.22752467715569    1.46662567080051
O           0.45405084704958    1.98690228266793    0.56703657062539
H           0.17783732059279    2.87550624630647    0.79907370132726
H           0.17486327099346    0.82567172226565    1.61528521105207
H          -0.12652503273980    1.70328972955859   -0.19779440620699
