    19
        -40.91873600
S           1.49959496250293    0.63028693680010   -0.53235279054574
O           0.66256708720204    1.45521268915407    0.32111965711937
O           1.87813621471861   -0.60787673726354    0.13468070288172
O           0.88192170138329    0.40284575108472   -1.83278617882887
O           2.83911966390884    1.41161103962264   -0.81114729273529
H           3.33735552672645    1.27472747917767   -0.01146117530613
O          -0.85557038241435    0.00144909761107    2.11022882110207
H          -0.11675589533532    0.50489487953772    1.72918797572464
H          -0.70991778589533   -0.91637575037373    1.85766555279759
O          -2.00899129218653    1.34489891083622    0.14198195314327
H          -1.96069355800387    0.89098513260204    1.01450387419963
H          -1.13999791584189    1.78892612671459    0.09017737592428
O          -1.38818676039773   -0.49883289934162   -1.40511306868473
H          -1.79023925131219    0.29610172166011   -0.78557367644352
H          -0.47507615964156   -0.10425311668509   -1.73659069390462
O          -0.21449376411615   -2.08440385945701    0.24588370784548
H          -1.09081837838313   -1.23165467149316   -0.77160478557582
H           0.00590972637540   -2.98540494164400    0.00230039796927
H           0.64613627071280   -1.57313776853879    0.23889967330856
