    19
        -40.91874042
S          -0.79990922353717    0.48808157788503   -1.43430264336780
O          -0.85710791036560   -0.96537455565454   -1.51286683070940
O          -1.28929542960621    0.97042285923510   -0.15540792677546
O           0.52648934495718    1.01594768194321   -1.73164618782330
O          -1.75548549786591    1.02470063946191   -2.56666639803295
H          -2.45015426627485    0.37385607616785   -2.58331823895974
O          -0.92241627330556   -0.78830785695173    1.93645182949535
H          -1.33150301272009   -0.32719704670038    1.18481333158287
H          -0.39012055816944   -1.49494191395584    1.55579315487400
O           1.95871495312364    0.49512757383452    0.22338819023220
H           1.47139179804736    0.80574314127565   -0.65267875275641
H           1.39095081403250    0.98119356296018    1.00907973718912
O           0.39101419730652    1.50919784337143    1.86519616681085
H          -0.28164414871346    1.74632604721968    1.19785915335758
H           0.00087378706564    0.70578417014173    2.28048423878036
O           0.95632427118078   -1.86911629971133    0.05886967099685
H           0.22989699207497   -1.59809524138669   -0.57419858553969
H           1.43143837812124   -2.58470988844456   -0.36772522367665
H           1.72054178464806   -0.48863837068602    0.26687532432136
