    19
        -40.91873420
S          -1.17711246802352   -1.09549357003472   -0.58424543514910
O          -0.57647954331674   -1.81183675188226    0.53230584773750
O          -1.60702113899514    0.23403037018628   -0.18712922795243
O          -0.31287170533337   -1.05456152299593   -1.75683651208407
O          -2.45336959229920   -1.91653595140378   -1.00742397111519
H          -2.85668062223185   -2.13241966452151   -0.17241132356011
O           1.53045517221479    0.52265096005407   -1.24152869798235
H           0.95257619958278    1.41024565038779   -1.00473519942479
H           0.80700226441758   -0.14131710716690   -1.60805325433704
O          -0.09592191554488    1.29756482432713    1.86550886942025
H           0.62127976450649    0.66719115473415    1.99009833608081
H          -0.79740252752343    0.81670316973518    1.39531614072557
O          -0.00986853105776    2.35099943020859   -0.56219987599055
H          -0.82227875167970    1.82320139382217   -0.69239808827027
H           0.09261425946304    2.33928769819967    0.41697699430573
O           1.71281387421955   -0.75160942211160    0.98503104274673
H           1.78280282566311    0.10115732907432   -0.35499939682389
H           0.83744824893702   -1.22363705346328    0.87022277339469
H           2.37201419699855   -1.43562092715371    1.11650095827909
