    19
        -40.92136385
S           1.09300593632140   -0.64257039546217   -0.56314685595806
O           2.42878794329049   -0.11634859200852   -0.43014113130618
O           0.53090097197748   -1.07349426433353    0.72926594347792
O           0.17490367352759    0.23219029609416   -1.25689148634135
O           1.19818466290242   -1.96930681427616   -1.42896731467906
H           2.06957814236645   -2.30426496036235   -1.23720163119184
O           1.44871934856242    2.18605273910295    0.39495036199815
H           1.09816499827334    2.53213168587177   -0.43053504314863
H           1.98375963059995    1.40061707692745    0.13927116202206
O          -2.08670606271199    0.86900440960797   -0.09551693216146
H          -2.39662700330261   -0.05858806068096    0.00090962751929
H          -1.36340646954782    0.78411275728076   -0.75786800855266
O          -1.93772893556337   -1.79087695320269   -0.04367377282831
H          -1.84502177311060   -2.20850903417621   -0.90164652938115
H          -1.03270223863982   -1.69282756346989    0.30795499302364
O          -0.40495180301088    1.03433896206054    1.71687129515846
H           0.30930607626003    1.65066375761590    1.31808973396526
H          -1.25026126422031    1.06317639998906    1.02271425111796
H          -0.01790583396735    0.10449855340995    1.51556135725080
