    19
        -40.91855591
S           1.00110607868783    0.15223547255273   -0.57559151015856
O           0.58118359213128    0.53028009372272    0.75972633382823
O           0.93145433525354   -1.37045037350994   -0.70579133612452
O           0.30189081342784    0.80770154182198   -1.63054358517453
O           2.51207979225809    0.42943925545760   -0.71174432460354
H           2.91062129092110    0.16227891702570    0.15564965461668
O          -2.11786915919776    0.08822156220158    0.81018134175690
H          -2.41603458520803    0.66063710726226    0.07613878342186
H          -1.20714347999727    0.36879199714795    0.99548562731837
O          -2.28306431363512    1.62395138115103   -1.41005390626880
H          -1.38668454071625    1.32844385493445   -1.64770975696624
H          -2.28163616103027    2.57943182621096   -1.48830512732077
O           2.93031308666946   -0.08113486447314    1.80109616469070
H           3.32598029556345    0.61982264664275    2.32500380118219
H           1.97077516953794    0.09252679646707    1.77067353078805
O          -1.43564638411970   -2.12792455633814   -0.33340435543942
H          -1.46604109198528   -2.83001150773110    0.32074352462192
H          -1.83289101488456   -1.31200486688286    0.10162941789129
H          -0.03839371370453   -1.72223627366509   -0.61318426805078
