    19
        -40.91855623
S          -1.09518853340226   -0.28302434893033    0.27730517605929
O          -1.42365666059433    0.59983188202438   -0.92827202412712
O           0.06914553791337   -1.08954469294309   -0.03340268075183
O          -0.99354386144531    0.47624142490149    1.47918316496779
O          -2.32578344325187   -1.20888204698936    0.35792889957525
H          -2.21212442422131   -1.86681436151599   -0.37481779058991
O           1.36852785925917    1.42304115880437    2.43919750476672
H           1.52055733042264    0.98726791036101    3.27946034359328
H           0.45585444985047    1.20628734140318    2.17969383401753
O           2.17037767118810    0.66186133179608   -0.02919626367683
H           1.60206406910410   -0.12519845679911   -0.02428783553855
H           2.11244663807860    1.02315333911853    0.87721232433318
O          -1.35323799223771   -2.81935089436634   -1.43356264760567
H          -0.56587830362154   -2.32975798613543   -1.13005042852634
H          -1.23220428277548   -3.73551972063657   -1.17210941282497
O           0.52980783890897    2.10566158401354   -1.41067849553536
H           0.77948431356828    2.04895729359869   -2.33595134225798
H          -0.66536296849266    1.27598148902708   -1.13007759219238
H           1.25871476176405    1.64980776330635   -0.88757473369029
