    19
        -40.91855620
S          -0.49633247677525    0.84340126221229    0.63224612664084
O           0.89111730312351    0.50599552461195    0.38003407735074
O          -1.17748969501717    1.17066254834079   -0.69800317495616
O          -1.22368143315037   -0.13158017575327    1.37498167323569
O          -0.54578013090772    2.19479269383542    1.37344731492566
H           0.15533330557545    2.75477684987393    0.95224558236239
O          -0.67506785612901   -2.79302946311571    1.26050651833470
H          -0.39017662969783   -3.05552062548073    2.13735905396500
H          -1.02051813016703   -1.88701556731087    1.34497304323061
O           0.82024972269468   -1.94704949821674   -0.82846025932170
H           0.35271313284301   -2.47633438971760   -0.15269302595921
H           1.08070059060450   -1.12981955235350   -0.37385282371654
O           1.59358474530486    3.04325272160663    0.16836646224605
H           1.64563100117900    2.07630158266561    0.04993157100515
H           2.33411307331821    3.29831381085244    0.72430227346855
O          -1.06756817339294   -0.83821170132328   -2.20410002388216
H          -0.35707594510790   -1.38419347038879   -1.74606543807732
H          -1.20362768423301    0.35133885636966   -1.33115348629632
H          -0.71612473002504   -0.59608138666176   -3.06406546456198
