    19
        -40.91855622
S           1.15037358881987   -0.09230205227198   -0.15750753239324
O           0.81496847339851   -1.57854113490967   -0.29607301300730
O           0.13513344191875    0.68498937408980   -0.84136824505131
O           1.37254515984604    0.27696624995701    1.20100122451522
O           2.47161510467750    0.02607628028064   -0.94384933961905
H           2.21517217585771   -0.00611085759438   -1.90078186051536
O          -2.09974294497930    0.46900760941891    0.72117369950854
H          -1.77046671350751    0.82362739174946    1.57044563747902
H          -1.43271228505970    0.72579016919374    0.06428430058512
O          -0.57721663040795    1.30568057664373    2.79414450149402
H           0.18982804396272    0.88969604706370    2.36299006152344
H          -0.30791574040251    2.19732278346361    3.02087352306813
O           1.21633636570985    0.23482635845561   -3.20866119683300
H           0.52725967689048    0.46057373935429   -2.55597445992388
H           1.38184852740657    1.02603888377332   -3.72741837600411
O          -1.42360329864289   -2.02643254085378    0.75485755826263
H          -0.07678940959664   -1.81914819928285    0.17261332660640
H          -1.79464420936925   -1.09344976481883    0.82267222308698
H          -1.99198935649451   -2.50461091369112    0.14657794723762
