    19
        -40.92217266
S           0.04801061227266   -0.93385485332134   -1.01610846450135
O          -1.14338350145271   -0.36975702586526   -0.40616080242685
O           0.19811171799842   -0.70035248940214   -2.42381025998575
O           1.24671151538135   -0.58775896712674   -0.24190038225215
O          -0.11920097022189   -2.51341135025654   -0.82652411189423
H           0.26623665964014   -2.89238733581595   -1.61096087110214
O           0.82472770709498    1.81077544319949   -1.68812789313688
H           0.53640283121619    0.98888785522735   -2.12318665281120
H           1.75506590154632    1.68158249119710   -1.48884888923281
O          -0.75322164586544    2.14321744826936    0.44193889227840
H          -0.17235772476288    2.31242574401016   -0.33253791839198
H          -1.31475763376097    1.40827878013221    0.13752925090349
O          -1.07354698614276   -1.25004962527691    2.05435151252736
H          -1.29962387703248   -1.02022140086786    1.12373305117734
H          -0.76171750110128   -2.15691109140906    2.03546637118024
O           0.65779332556061    0.62391450334789    1.83297276127425
H           0.07371039256785    1.38984828786099    1.36691064944474
H          -0.01236214588336   -0.05603465248517    2.17697849806157
H           1.04340133293913    0.12180823858069    0.98828527888099
