    19
        -40.91907701
S          -0.82130619803295    0.49260317716861   -1.36431975302403
O          -1.52258149383981   -0.60845006788496   -1.98207966953614
O          -1.27663666051170    0.71830114516071    0.02401307709131
O           0.61862847389551    0.38949511176263   -1.42119979812693
O          -1.22492347404291    1.80467169487635   -2.15268278395560
H          -2.13020754687094    1.66743327035316   -2.41935369850198
O           1.10429580349382    1.87765282129540    0.70399520367031
H           1.21480057485474    1.45708104465659   -0.17136805638876
H           0.14431426012668    1.95484362315788    0.78310424040908
O           1.56099300413814   -0.17053720096043    2.25009723709507
H           1.54798294440393    0.11688031889625    3.16482596795065
H           1.52559064480119    0.65633175771752    1.68620635035778
O           0.18304167382365   -2.28191985299182   -0.90186600372532
H          -0.55673954375044   -1.90907899685896   -1.43173795319881
H           0.94002442425158   -1.73900696925298   -1.15741130019971
O          -0.51052841281904   -1.26500336001901    1.30353874499619
H          -0.20696242765869   -1.83614931955949    0.48864492595008
H           0.35154627161946   -0.90323694128956    1.75969206728417
H          -0.94133232789813   -0.42191127620947    0.83790120182736
