    19
        -40.92071434
S          -1.42922134897341   -0.33082231992516   -0.21276831481767
O          -0.91107120135210    0.56250859250793    0.84253872790336
O          -2.12666705628851    0.40711689467752   -1.24057645552524
O          -0.37863740066292   -1.18781819857042   -0.71173916416085
O          -2.50042842834742   -1.25122381856455    0.49544038968475
H          -3.31151960322720   -0.75655587172441    0.42088718478296
O           0.78934464504497   -0.62801909030277    2.54215061506924
H           0.05031138544501   -0.25106774880016    2.02448439561901
H           0.86710151801284   -0.09684866150349    3.33593920518167
O           0.09699224061720    0.99186748363682   -2.49246588703711
H          -0.82698596067039    0.88166447392480   -2.16519284919997
H           0.36510697918034    0.11478949465020   -2.78193881136159
O           2.05874437456614   -0.84589126726157    0.20986872902508
H           1.25590819906626   -1.23733199791679   -0.20521783493775
H           1.88032987746220   -0.92094723088540    1.17115753304985
O           1.18914722212032    1.42748140600173   -0.24018879901476
H           1.73519971314455    0.49169190657382   -0.06018572817454
H           0.87086216583723    1.37879569013851   -1.21845361493213
H           0.32548267901889    1.25061025334759    0.28626067885458
