    19
        -40.91990208
S           0.81833916362082   -0.47774783739309   -1.17873088273597
O           0.69949552721204   -1.21493627267305    0.10012322707835
O          -0.19751462867804    0.56148060863090   -1.23917010667820
O           2.15006689647707   -0.00141772689096   -1.41137180194303
O           0.45736293736729   -1.52484215173839   -2.30195278931144
H          -0.49418917333956   -1.60097179008744   -2.28000234350945
O           1.76037236460082    2.09024972983988    0.13961481400591
H           1.12137391963903    2.56733660663622   -0.39828884096385
H           2.10704024048221    1.38031694371634   -0.44838434399819
O          -1.79683686084487    0.86738065118593    0.80324672758393
H          -1.38208393506612    0.92679225645799   -0.08902339669206
H          -2.14510059830947   -0.04553774189322    0.82353856688761
O          -1.85594460567533   -1.80566276320018    0.41597278557271
H          -1.98188347637167   -2.56034280960521    0.99343643655933
H          -0.88755810820769   -1.70926006400569    0.29059658810655
O           0.47932629410886    0.62781143192062    1.77463875536509
H          -0.55214041883728    0.81676795176246    1.51391278203366
H           0.66474553910566   -0.22881273921663    1.22686935448376
H           1.03512890278646    1.33139569660224    1.26497445814210
