    19
        -40.92071393
S          -1.23972307666985    0.58326504430205    0.56422981609557
O          -0.90285311314798   -0.85398600574549    0.55821310051075
O          -1.15404268516260    1.14605167441759    1.89226257480186
O          -0.46120939083153    1.28997107710632   -0.42673102984327
O          -2.75658158692964    0.66849001754483    0.12998890964506
H          -3.23326472797908    0.60786965619860    0.95294425596426
O           1.34916959048790   -0.04754621642189   -1.78077845154962
H           0.69634683503284    0.63539085272300   -1.50132076804264
H           0.78831860080513   -0.77234148315685   -2.12980614726174
O          -0.57392959271495   -1.88740279692818   -1.89532201980489
H          -0.85586218990862   -1.54488546623599   -1.02385098226650
H          -0.63505240188393   -2.84257539103078   -1.84713113150370
O           1.43200118289904    1.50520016058034    1.69912995769767
H           0.48203316916545    1.44293042048555    1.95733134895674
H           1.45944037753455    2.17546994393349    1.00995550660218
O           1.61277733125768   -0.76500332825958    0.57278189279664
H           1.66463998390983   -0.49489959667851   -0.49191423354993
H           1.71637679220813    0.12024885095163    1.08890821725129
H           0.61141491193272   -0.96624743377996    0.67110918350685
