    19
        -40.92217270
S          -0.89316956275353    1.05277952435676   -0.03066310249120
O          -1.99891142029838    1.30023546686271    0.84948268229900
O           0.41174665055722    1.18118954911138    0.63049855701760
O          -0.96382913226943   -0.17477223795030   -0.80351995808562
O          -0.91001193482995    2.21514844822947   -1.12965293409817
H          -1.39751143694387    2.92521847822946   -0.72254282119432
O           1.11272280896196   -0.04825234006343   -2.38622876056257
H           0.21663879823013   -0.11340748292627   -1.98273035484854
H           1.20644940693285    0.86030229037694   -2.67913207479644
O          -0.90098318801642   -0.63312248633131    2.36479852173073
H          -1.46817221507475    0.00748050110147    1.90014936049371
H          -0.25378064384918   -0.10529317856628    2.83848550926147
O           0.10886176271003   -2.25921175690554    0.50043265975643
H          -0.48702176944184   -1.86757635008613   -0.16230390726582
H          -0.23770229259211   -1.90160293682147    1.34762958955741
O           1.93863748267926   -0.64651666768111   -0.03716644930090
H           1.28325845464059   -1.45380264965347    0.21224678462999
H           1.84114884869652   -0.51808596818331   -1.03910232497928
H           1.39162939265431    0.17928978690017    0.32931903287680
