    19
        -40.92007401
S           1.37143655618195    0.25838086201349    0.03136283338310
O           0.69687824234698   -0.72346890573209    0.90419066625351
O           2.04701570318637   -0.39295318365812   -1.06837106715583
O           0.47315132993047    1.31776553604416   -0.34571978840539
O           2.49586572525076    0.90983226591451    0.93973467025100
H           3.22422597350500    0.30000950861990    0.86937713467891
O          -1.40781482353968   -1.33107811061638   -0.32365899495232
H          -1.00763879229171   -1.33723285618816   -1.26127439997205
H          -0.57595164374855   -1.24099407715113    0.27295704935198
O          -0.01572072154338   -1.18242725698345   -2.45312306680294
H           0.80764949663293   -0.82913928255052   -2.03354143502741
H           0.24694555947862   -1.95662876792909   -2.95592700211389
O          -0.76355636141243    0.99600088291825    2.37407743687245
H          -0.24080625119503    1.79953799324940    2.40881847012015
H          -0.17695814756990    0.31276934471633    1.99889691063636
O          -2.09977378076377    1.00661352667669    0.07608625575015
H          -1.94354180035747    1.06840809037244    1.04731411047248
H          -1.26040335640613    1.36102954319103   -0.29405057518271
H          -1.87100289766507   -0.33642509285422   -0.18714920814806
