    19
        -40.92343644
S           1.62275454953799   -0.45399630191406    0.07962675621236
O           1.79386229864214    0.97205213780914   -0.09861837939343
O           1.30030255243562   -0.79608615783936    1.46594591926683
O           0.66102812992757   -1.02120343222949   -0.85227333369501
O           3.00304225659916   -1.14526877073431   -0.23479159206526
H           3.58154572948904   -0.76405687385131    0.41829893743069
O          -0.56742481589697    1.96479949482252    0.43435106906312
H          -0.96540385799516    1.71608950011548   -0.42601829028555
H           0.39687964447044    1.80280700154854    0.30112105619131
O          -1.08724436278513    0.69496083236391   -1.87568269009582
H          -0.81299234517140    1.10684499514245   -2.69618575027540
H          -0.36899669951090    0.07209103994917   -1.62698488009968
O          -1.84564391639171   -1.47634522829079   -0.05888830182425
H          -0.92702814275665   -1.59456084944929   -0.37881060011838
H          -2.27540121048629   -0.93153204710870   -0.72746731388212
O          -1.02642681805487   -0.02423485557957    1.86398375512452
H          -1.51157687554965   -0.64602398023005    1.20477745290635
H          -0.04493436284585   -0.38569873943708    1.85412413775040
H          -0.92634175365809    0.90936224490982    1.35349207778658
