    19
        -40.92159003
S           1.12889798966739   -0.94943106713014    0.05090640663895
O           1.87008531128049   -1.21239892662701   -1.15256568707297
O           1.14073924198533    0.43676920905342    0.49342678971164
O          -0.24745686704005   -1.45784334041464   -0.01706650868773
O           1.83709712224532   -1.75729470445117    1.21595052953229
H           2.14525704144742   -2.55336004718715    0.79365251260685
O          -0.42403480378519    0.98586398606407    2.51966173550869
H           0.31734092038855    0.75211818621131    1.91265251344405
H          -0.29120281562316    1.90062964415097    2.77637452028629
O          -0.64331851175854    1.72947993306900   -1.01165230222942
H           0.18337693943415    1.55777656984748   -0.51905471955166
H          -0.55368868236599    1.16046831416721   -1.81265885609436
O          -0.12646493183882   -0.27938239847926   -2.64725446457516
H          -0.74995337788874   -1.00391268010433   -2.55759352085744
H           0.70841867404442   -0.60761721791638   -2.25970819249714
O          -1.91420341937372    0.27993942544160    0.56478685797406
H          -1.53530469093357    0.58614285155323    1.45571252076375
H          -1.53358112148075    0.98800229406409   -0.14365783305520
H          -1.31200401840757   -0.55595005131208    0.33808771815382
