    19
        -40.91277700
S           0.28661750011915    1.10472410678488    1.29104450469358
O          -0.42861414550179    1.38926313860934    0.03095294876149
O          -0.54701378204923    0.44456748707223    2.25745537258697
O           1.56135701166356    0.46867925605824    1.01510174272981
O           0.64428685764537    2.52786449432886    1.89672031575141
H          -0.12904361403793    2.79860177660416    2.38343266327501
O          -1.07429677596130   -2.05217278839929    1.46351129941174
H          -0.81830971863519   -1.18872392647065    1.84542621699072
H          -1.78743290371093   -2.38573432773958    2.01120018224022
O          -1.39681860220889   -0.95742385798421   -0.96087493873916
H          -1.26946699024690   -0.05574239594731   -0.61836183139985
H          -1.33873301287332   -1.53253329427851   -0.16909195382410
O           0.69965032235418   -1.17305863137985   -2.43515649569179
H          -0.14299343438202   -1.22180138973474   -1.87815806864158
H           0.41945790986369   -1.11783377248934   -3.35094465724252
O           1.53654510694812    0.94122411995209   -1.39351482866204
H           1.86422326241183    0.66577462190950   -0.44983560419212
H           1.28449430421896    0.03870155928242   -1.89558091012295
H           0.63609072437948    1.30562385382591   -1.04332596792801
