    19
        -40.92079112
S           1.31212968598304   -0.58581234748003   -0.37945597422988
O           0.67436924863422   -1.23717948724697    0.76633042572005
O           0.31841140277968   -0.00169746717620   -1.26963593093839
O           2.36027149061387    0.32061186132674    0.01291159798103
O           1.98543064750039   -1.74595024157324   -1.21944980007410
H           2.71039102278777   -2.02339372858437   -0.66810334714409
O          -1.73413143649675   -0.69981251094683    0.96081544785840
H          -2.02082283428771   -1.06646404849499    0.05862791891678
H          -0.72748892655728   -1.00812825507215    1.01060396983282
O          -1.91842483603053   -1.35077747383240   -1.50747637207510
H          -2.48548411049106   -0.88331510657896   -2.12411830936428
H          -1.02183223644027   -0.94790988829798   -1.58941154416335
O          -1.12845915483701    1.61869930169623    0.27531704308782
H          -0.62444427460986    1.25713946064728   -0.48174187023387
H          -1.61522308042061    0.34604489795650    0.78892999402039
O           1.09678145488023    1.97379679620705    1.64245830651633
H           1.61280070981821    2.78002618324501    1.70206061831864
H          -0.42864402354928    1.91059641506626    0.90581100499879
H           1.63436923072250    1.34352564913899    1.11552681097246
