    19
        -40.92079121
S          -0.28420571710360    1.06838407251699   -0.99238140893846
O          -0.23263725981795    1.53588088571371    0.39421990335519
O           0.55479944509080   -0.10710408907059   -1.18039894284389
O          -1.63275608696941    0.91581237412825   -1.47435614013869
O           0.39813607374181    2.20304870361140   -1.85948111626164
H          -0.23212076473815    2.91587402144639   -1.82572180294189
O          -0.30194829442764   -1.86799543094312    0.62833776110042
H           0.35253868956093   -0.93514687745653    1.53443257459374
H           0.02167711998956   -1.47157436928147   -0.20588345456650
O           0.86431397400629   -0.08006644501107    1.91479239967722
H           1.76531769860371   -0.10436787920807    1.44812820163572
H           0.37124923834508    0.69312953172208    1.39512107882904
O           2.77623790884666   -0.14068067470602    0.21406043270396
H           2.06167559642634   -0.04859749658346   -0.45956930858491
H           3.25350142495409   -0.94436097280604   -0.00185608657980
O          -2.66961747081150   -0.76204834918595    0.28457410533343
H          -2.36436310787032   -0.07479518580130   -0.34665250295333
H          -3.44315632777151   -1.16554753175245   -0.11375726478383
H          -1.25864213005524   -1.62984427733450    0.64639159136486
