    19
        -40.92037971
S          -0.16213188407415    1.04254663605461   -0.23460415170648
O          -0.12662149905172    0.76626872850560    1.19210495206137
O           1.08588917822095    0.47105691280238   -0.88335382227794
O          -1.34496164121021    0.59117894148083   -0.89534414086188
O          -0.01091230276448    2.56455139476261   -0.43771740810014
H           0.65716482771214    2.86116202076653    0.23015513406882
O          -1.56651269398169   -1.72418541669736   -2.25022132653630
H          -2.28834457282724   -2.19658925279158   -1.83006314047638
H          -1.60479691513559   -0.81261688645904   -1.90551362680132
O           1.45443416551622    2.82434174450559    1.69578483710936
H           1.01552292143184    1.96179354604036    1.81881653117821
H           1.10214753410220    3.41668152427305    2.36466046622847
O          -0.28960135318409   -1.90311446140820    1.39027298901664
H           0.17697093070009   -2.16515950883388    2.18648613888633
H          -0.34148746850220   -0.92787580934409    1.40728263647797
O           0.78200159542038   -1.97802103968426   -1.05210842195889
H           1.02956110100035   -0.60239907815084   -1.00261946403059
H           0.43785077318682   -2.15484241916485   -0.14778796165512
H          -0.00617267655823   -2.03477757665919   -1.64623020062407
