    19
        -40.91966033
S          -0.94150238771071    0.22750154043656   -1.41213049702011
O          -0.94651543621248    1.57746217763632   -0.87013945305836
O           0.35359908075919   -0.07664315649825   -2.04021598089497
O          -1.31482392016509   -0.77538993424591   -0.44587615022034
O          -2.00417177263776    0.18986066293637   -2.57299894291278
H          -1.70192306285167    0.87407537125004   -3.16227959523406
O           1.88566480896887   -0.45900662590034   -0.14475987367934
H           1.32173470642995   -0.34197325689978   -1.03975345993624
H           1.40665457343502   -1.27600201867224    0.36294588795230
O           0.50946338347914   -2.20487581519008    0.98889356615456
H          -0.20716845204429   -2.22363565483333    0.33405779463651
H           0.12094337463779   -1.66515191627217    1.72042551983745
O          -0.80983850449820   -0.27532706554625    2.21537687289617
H          -0.29597748976976    0.53839791024886    2.15840169341134
H          -1.30769362793045   -0.33073356380430    1.38304172084243
O           0.86333577444687    1.64637814520756    0.94062825970789
H           1.29476644776037    2.50292864825399    0.93622340884832
H           0.12333948214775    1.70031680245487    0.26828556928267
H           1.65011301173946    0.37181775944550    0.37987363939390
