    19
        -40.92079113
S          -0.65600356381910   -1.24499871482201   -0.47847516121691
O          -0.24611531605744   -1.50096124972322   -1.83520227277245
O           0.44478483004409   -1.13839115090723    0.46914682245164
O          -1.55616885386994   -0.09520362786114   -0.37094664095412
O          -1.49315711836054   -2.49910080212916    0.00261746688331
H          -2.12106274140626   -2.62705934761673   -0.70159199408444
O           1.57504126847616    1.22144362725690   -0.04072019968103
H           1.42105565182233    1.26826445328233   -1.01355747124678
H           1.45036453371307    0.27387203891868    0.17005376709394
O           0.83374764706659    0.80736598840167   -2.53576768024033
H           1.40336080443995    0.64974545054254   -3.29107333096997
H           0.37183791668779   -0.04087813496601   -2.35994590734526
O          -0.15706203989368   -0.05939011175545    2.78308039564893
H           0.63328680662458   -0.05623215924117    3.32681831674156
H           0.03411501463541   -0.64435123875342    2.01230661103541
O          -0.62421113259019    1.73162029155773    1.01527043274238
H          -1.14113905070025    1.04969135595934    0.39995624190008
H          -0.51910643550501    1.20078259115478    1.87401548948588
H           0.34643177857650    1.70378073067711    0.57401510451038
