    19
        -40.91966072
S          -1.58724231302940    0.37051139064834    0.52482439347902
O          -1.91118524625730   -0.56891052255794   -0.56001747639037
O          -1.08388647278016   -0.34140070180490    1.68924489586509
O          -0.70837624338128    1.42175645429501    0.07592317887154
O          -2.95115013687746    1.03627186401938    0.94252439134695
H          -3.47081436993983    0.29438456319513    1.23638948846182
O           0.27890900487353   -1.23213777042735   -1.48212813240633
H           0.68185222583032   -0.28386957471921   -1.78772493075497
H          -0.71933299468946   -1.00732910699090   -1.19029997402579
O           1.10730625800937    1.08000867791470   -1.92206872654034
H           1.73383728761150    1.18400842184357   -1.16499725929575
H           0.31255177572381    1.53997945644407   -1.60531801446403
O           1.99371256404197    1.16523500161401    0.56426021126789
H           1.07498377322344    1.45385887881551    0.69100882351301
H           2.03468703468193    0.26679152901907    0.91159785287091
O           1.07738046436451   -1.50379178897372    0.95596061558406
H           0.72507499262805   -1.45499690338570   -0.60332861421405
H           0.25880222103948   -1.06616439987946    1.33123062522182
H           1.15289018491365   -2.35420546915153    1.39291866162781
