    19
        -40.91966061
S           1.40432208898887   -0.57938938989966    0.79038994607433
O           0.37551318653029   -1.04088460202601    1.70934566756164
O           1.44503360880281   -1.42485949417479   -0.41299100603942
O           1.28498257041136    0.81812932514413    0.45656423777782
O           2.79106370668162   -0.78151882786347    1.50750211652167
H           2.79565878435189   -1.71317276167638    1.70465526424117
O          -0.52476419847670   -0.73183941866519   -1.72628379284690
H           0.36297979932385   -1.09891160656187   -1.26773794087409
H          -0.32728693781910    0.31302404649057   -1.88040391849720
O          -1.21845336449446    1.97028030068575    0.53002617067211
H          -1.77456842035534    1.19666200771774    0.67762109240549
H          -0.33020579399887    1.71597743472673    0.82977395723058
O           0.01964035868928    1.70267890561243   -1.78698393746118
H           0.84965410541657    1.64055124818607   -1.28657450286519
H          -0.61769095087573    2.03647347750562   -1.10936535905710
O          -1.85950471721961   -0.80529001520149    0.48069899525470
H          -1.03540401284977   -0.90740689360282    1.04000974369945
H          -1.20105318351213   -0.78054722377042   -0.97732355241082
H          -2.43991662947321   -1.52995653263666    0.72107680864930
