    19
        -40.91892669
S           0.04084455791419   -1.35980770530639    0.45677405011798
O           1.43838901098568   -1.69708642881268    0.62104828928905
O          -0.36063526167116   -0.27676305844263    1.37414888626819
O          -0.35161060148850   -1.06059042552827   -0.89802910833159
O          -0.79754662802418   -2.62276474802987    0.90692110556889
H          -0.34220372854693   -2.94895229882051    1.67759172863255
O          -0.85208530740837    1.52633538804359   -1.69191600600342
H          -1.71905404493595    1.31560390160473   -1.27652261026792
H          -0.51342756733303    0.65466212202566   -1.95073136354551
O          -2.64268771001909    0.19692149338356   -0.22143292133023
H          -2.03201020185506   -0.50012683802954   -0.51456426581401
H          -2.46326029954695    0.29915085224204    0.71777583386962
O           2.65246342449107    0.43382184421494   -0.23603907529268
H           3.47214171651828    0.52172931596062    0.25534179177920
H           2.27137581093548   -0.44711241063405    0.01242820716877
O           0.57567925423485    1.77741111573092    0.34627664206258
H           1.48649374847712    1.39419379918034    0.07924180052246
H          -0.00765572141965    1.80877305477333   -0.54557861168579
H           0.14478953867894    0.98460101644289    0.88726563697806
