    19
        -40.91793061
S           0.59861176948289    1.47133001041880   -0.75155614778434
O          -0.10907671825040    0.49250422578012   -1.59259458312700
O          -0.22014703596386    2.62679805618050   -0.46471518620174
O           1.15172018033697    0.84059795243132    0.42921474953496
O           1.82887528577651    1.96558260336178   -1.61330300061111
H           1.44249161517036    2.52890745431298   -2.27844076034358
O           1.76373416925644   -1.69566463436394    0.29641566491417
H           1.58993032878246   -0.72489730236882    0.26237873027539
H           2.40464547724850   -1.82110939488936    0.99879327837219
O          -0.67328640994085   -2.61406392175153    0.53077448955465
H          -0.76843179773959   -3.31273005881384   -0.11975406705093
H           0.27639003598511   -2.31698736264175    0.48000087299672
O          -1.35203279578357    1.31377068523264    1.50009809196143
H          -0.50093280320959    1.04244883687344    1.86412010317888
H          -1.11100185332303    2.01079388359292    0.84887660490995
O          -1.87556540561713   -0.50000363839767   -0.19798774729461
H          -1.16906807243539   -0.10254150504428   -0.89977276539125
H          -1.45706814075430   -1.38657506612221    0.13411690169654
H          -1.81978782902083    0.18183917620659    0.57333476040456
