    19
        -40.92071430
S           0.65079160441770    1.30736928199708    0.25287170294146
O           1.82838820252605    1.30278209204481    1.08986332030128
O           0.83950470278862    0.48315690091589   -0.95753109087683
O          -0.56232620386848    0.92806672381126    0.93961155147024
O           0.46359141071921    2.78858209820238   -0.26426496025883
H           1.35278809923059    3.12845117153169   -0.30895847379662
O          -1.41866440971846    0.04258913181091   -2.33643306691365
H          -0.58478754696209    0.34288049549956   -1.92321213042530
H          -1.19845729538992   -0.23926071529284   -3.22551150247313
O           1.15269469905613   -0.95679178217030    2.22717331588489
H           1.57070992722572   -0.11974785117930    1.91479152232155
H           0.36304530022251   -0.67932173021924    2.70089845271382
O          -1.94257537506137   -1.10448488157276    0.01001175453524
H          -1.68221564318055   -0.28077326962739    0.48373645548093
H          -2.06396794405443   -0.80757350490549   -0.91665862848585
O           0.42382066036809   -1.82602700591910   -0.04661266853002
H          -0.66543666103380   -1.67805967670481   -0.01491986781064
H           0.71895957834282   -0.97502488147982   -0.53865873401501
H           0.75413687437852   -1.65681259674299    0.91380304792810
