    19
        -40.92136408
S           0.51747383552807   -0.27698011607363   -1.25635712631796
O           0.35237067102886   -1.56885552130768   -1.87484564417257
O          -0.72191621586779    0.41577638035577   -0.98467666794425
O           1.35889778208356   -0.33873088967444   -0.04820225089919
O           1.32940088039724    0.62840937926211   -2.27724672862798
H           1.85839263215182    0.00757995347720   -2.77011094462802
O           1.21260663487752    2.21709222537360    0.75935036945588
H           1.22441897592179    2.75571280087049   -0.03370308104133
H           1.44192621075461    1.31235999470429    0.47446480092829
O          -1.18248710432569    1.27406050305501    1.44749342508464
H          -1.26579233537849    1.09954453008230    0.48205947565463
H          -0.37799204033716    1.83673527538279    1.49309815688943
O          -1.49306783653805   -2.18921120096544   -0.09865856026591
H          -0.81585311617447   -2.14242060861123   -0.81115422263054
H          -2.22225552908628   -1.64416540999181   -0.40741352264939
O          -0.23754340359669   -0.99285125813045    1.77344732823315
H           0.56443459291159   -0.80472322870603    1.16024890245784
H          -0.71738034125851   -0.00882419577473    1.79652126820261
H          -0.82563430309857   -1.58050864331429    1.17568502227704
