    19
        -40.91907724
S          -1.59464417435116   -0.12159834274221    0.47434684441553
O          -1.86256815876587    0.70270699479524    1.62951409728045
O          -1.11101298511192    0.68270318489412   -0.66803226211871
O          -0.71004263512718   -1.23522677695914    0.72880374127747
O          -2.97809629555358   -0.72685872788642   -0.00049318882771
H          -3.62274890854176   -0.04738942971027    0.17915928272511
O           0.66872174985388    0.56021401425825    2.29962671715205
H           0.69628012325700   -0.39262750117438    2.14279071612127
H          -0.29340538026588    0.76312434831283    2.31152336201518
O           2.43844419606093   -0.25969701607397   -1.23073687357071
H           2.86198613575848   -0.02285631282902   -2.05779327912561
H           1.65854694072332   -0.84376310038627   -1.46172677107669
O           0.18911301172870   -1.47453416855794   -1.74067320467547
H          -0.08970488375139   -1.70397009147600   -0.83218048784400
H          -0.38089039056463   -0.72494304758993   -1.95598021032713
O           1.12800520863925    1.51240837883554    0.00583049738398
H           1.08294995362338    1.21461897536515    1.00168861684563
H           1.75802078772684    0.84442771939629   -0.48218201535925
H           0.16104569467112    1.27326088952912   -0.34348559227498
