    19
        -40.90976908
S           0.80696156594193    0.22148741986365   -1.76966934517440
O           0.98087562227690   -1.17789638647151   -1.42576601950915
O          -0.58982924030815    0.58650866240848   -1.91982153574575
O           1.50938130832507    1.10727033914919   -0.83963828362580
O           1.50167901357640    0.44859186934402   -3.16729038907455
H           1.02385432940843   -0.13871923873509   -3.74523074280424
O           0.78193022355472   -1.63905274694359    1.10016060010661
H           1.57274709671008   -2.10542473751398    1.37715051692561
H           0.83499276264239   -1.55975976743767    0.10764325869123
O          -1.73236778322658    1.18877189603274    0.30825672768934
H          -2.12786484056568    2.05694755324121    0.21078911847321
H          -1.38421484695290    0.93544363381902   -0.59108010543470
O          -1.72340807079240   -0.89064169742129    2.29082383276100
H          -1.11751772825707   -1.52032571097177    1.88860492614180
H          -2.12203796528217   -0.39026645805214    1.57242711212599
O           0.54732394745223    0.88331286820685    1.41530297990643
H           0.62344478676887   -0.13227973437632    1.51575965335885
H           1.04805879351615    1.06909499547352    0.48887546296223
H          -0.43400898478802    1.05693722038470    1.18270223222616
