    19
        -40.92161567
S          -0.28355454982422    0.71872483102294   -0.73447538986688
O          -0.86633531215595    0.61802313920533    0.67517172435118
O           1.01703362209449    1.34275178610840   -0.65492017807000
O          -0.30502915616260   -0.55340173989449   -1.39076051169180
O          -1.26843016421352    1.67450567737971   -1.43927800041200
H          -1.14935946655109    2.53720802237365   -0.96730191873608
O           2.16765889545124   -0.98426001635641    0.09711540387107
H           1.99533071902698   -0.05930071827498   -0.14687448455257
H           1.99781995440676   -1.49281986687438   -0.69973574242406
O          -0.37736306626590    3.48958098003946    0.19392796282562
H          -0.67319818691559    3.21085767170508    1.06520530854232
H           0.45098418994398    3.01484233417248    0.01824737978938
O          -1.08301390928359   -2.82461612340985   -0.15847025516363
H          -0.92065145496067   -2.04518049836982   -0.72090121438330
H          -0.96132130409553   -3.59711367935027   -0.71269495726974
O           0.11515094310288   -1.38352377638076    1.75065574583651
H          -0.37354008770518   -2.09061101477098    1.28072823033592
H           1.00268901566350   -1.34218198138520    1.32278929476396
H          -0.48487068147316   -0.23348501692217    1.22157161223853
