    19
        -40.92008982
S           0.45111195555203   -0.55212790872136    0.38230503128202
O           0.02191691706990   -0.75175571268926   -0.97395588433164
O           0.00220548653173    0.69742973283528    0.95900754016530
O          -0.01591320046748   -1.71568343084438    1.26141076535476
O           1.97752522780573   -0.63519509958627    0.47189850182648
H           2.34045944938827   -0.28441756644070   -0.42583629937530
O           1.33086914624445    2.48809542258362   -0.57090803341824
H           0.74736014264273    1.95660272257673    0.00061534594422
H           1.81922202009012    3.07537623827814    0.00966128228826
O          -2.67436213143249    0.32154370981773    1.02478136470249
H          -2.97526298697442    0.47093856732606    1.92349465886288
H          -1.74387813675782    0.60957405861849    0.99355328838391
O           2.42379563761740    0.37805503572315   -1.79120912151800
H           1.63489030683460   -0.03004139565846   -2.17059974468165
H           2.14958922901859    1.28663328455703   -1.53473480958310
O          -2.18135694878761   -2.10977428583923    0.03564026549029
H          -2.61442498897992   -1.28778203434965    0.35728910669119
H          -1.78622027273451   -1.87607186678203   -0.81408292647411
H          -0.90752687265616   -2.04139947139557    0.86166965838249
