    19
        -40.92008959
S          -0.47466268726215    0.62410371635748    0.20071013716068
O          -0.52556214625779    0.04112538197673   -1.11110848420539
O           0.48432156707790   -0.00571573101692    1.08334116339546
O          -0.16961654744507    2.12147196843044    0.10245619463684
O          -1.86172008189866    0.59037319439703    0.84867327025879
H          -2.33176199741126   -0.25050863092477    0.48485858648718
O          -0.59173038396940   -2.47115087468055    1.35691913301081
H          -0.06728335727662   -1.65268592537230    1.28860105880157
H          -0.69765703944657   -2.64906443437736    2.29377592855902
O          -2.57908931235694   -1.58812386517125   -0.19425275476892
H          -1.97533690872169   -2.14483860428098    0.34617051325607
H          -2.09477456121174   -1.40034545326989   -1.00850422297629
O           2.81274714190432    0.59341548396242   -0.15367632744091
H           2.04954494188305    0.25356061039621    0.34800571473499
H           3.39339614445827    1.01244201466777    0.48489475143538
O           1.32929488933657    1.94673911709959   -1.91525940536126
H           0.80510853258803    1.22687418331814   -2.28911723254842
H           0.42575984210494    2.24260743373180   -0.72898752575470
H           2.06902195390363    1.50972041476041   -1.43750049868247
