    19
        -40.92174069
S           0.12724585548968   -0.88621228800151   -0.00264313321731
O          -1.29322965679748   -0.35238979547165   -0.00087582726382
O           0.73816639395085   -0.67344994773762   -1.29779910364270
O           0.86873470483551   -0.35115438247127    1.10147143370955
O          -0.05905166810878   -2.40410343907106    0.21117951987974
H          -0.32243724150678   -2.77121139829701   -0.67198424352158
O          -0.10563659042626    1.58152798423077    2.70072657635096
H          -0.57436243168202    1.17782556363856    3.43293964842196
H           0.36894927337717    0.86073765183561    2.24475889665023
O           1.23036802873725    1.92891557163419   -0.73906086213637
H           1.81778701500558    1.83209220252248    0.01510988859804
H           1.16533337918256    1.04610609749899   -1.13912762787396
O          -0.38727577466491   -2.83740976627497   -2.32756539937712
H           0.23938811704779   -3.42316599184433   -2.75981347113799
H           0.01387066987778   -1.94865407643815   -2.32003339749856
O          -1.19510656429720    2.09372838636568    0.32988934047238
H          -1.33763247155919    0.72856199385218    0.11648245165457
H          -0.92952606007583    2.12277520733328    1.27818642020051
H          -0.36558499838481    2.27548043670017   -0.17184111026615
