    19
        -40.92008982
S           0.64512771442678   -0.04241207291962   -0.48544055299564
O           0.79160330938254    0.08416059651862    0.93794478503629
O          -0.73206929802239   -0.08374917183590   -0.92931522608446
O           1.37474340920746    1.10094133001712   -1.19623388212730
O           1.37881806590126   -1.29060664512549   -0.98390468384802
H           1.32971302417406   -1.98039505074133   -0.22059424735999
O           0.93413493668128   -2.68657051396903    1.06562893006297
H          -0.02551448466932   -2.80075778555850    0.88539796860817
H           0.99577002871665   -1.91860817145960    1.64807729494411
O          -1.57880658071217    2.39658148658557   -0.26545159001948
H          -1.42374541932790    1.46086867576418   -0.48929260730685
H          -1.94669879403510    2.80682250738504   -1.05084391682177
O          -1.56650577160940   -2.40968366715080    0.16866723431829
H          -1.94033774469465   -2.95324784379596   -0.52796675769414
H          -1.41578632687661   -1.52847189221681   -0.21902591430416
O           0.91841259380763    2.83534477122999    0.57310154689885
H           1.32040443084109    1.91481649729501   -0.56733417057939
H          -0.04144971971581    2.91189131162128    0.37410436517206
H           0.98218662651713    2.18307562836873    1.28248144410167
