    19
        -40.92019823
S           0.62350331229227    0.56289776832228   -0.70579172090747
O          -0.85330084885183    0.76970409000510   -0.26360447588649
O           1.14269280176916   -0.54682139173017    0.05901807782060
O           0.70054437814308    0.41330605111993   -2.12318365975698
O           1.28828943258990    1.86933744833365   -0.29322884855902
H           1.13160523005659    2.04832985015239    0.70083051974155
O           0.12987754004588   -0.33414071842343    2.50018879082402
H           0.58717617145581   -0.56152471313644    1.66438428199454
H          -0.79753896063039   -0.54511912321379    2.37065037690198
O           0.92786776282333    2.15865175090726    2.20834590739161
H           0.55729525448954    1.27591523604603    2.46339566931773
H           1.77660381004800    2.23659367261096    2.65073794914855
O          -0.94468855697882   -1.55238306767633   -2.92935663065286
H          -0.25045318172562   -0.88076166554125   -2.78412782733285
H          -1.51914332292833   -1.20268882021308   -3.61304094872806
O          -1.37391703179023   -1.72268711392697   -0.31642121922981
H          -0.48238493305706   -1.98461318215779   -0.05648150289094
H          -1.24611834524501   -0.16096233328794   -0.23955946403662
H          -1.39791050251170   -1.84303373820468   -1.29275527515863
