    19
        -40.91782047
S          -0.73012312210663   -0.02764372893883   -0.78554386336572
O          -0.47646907713424   -1.32513693528206   -1.36813880504642
O          -0.85902870845156   -0.13921484430353    0.69633885196415
O           0.29205477056507    0.94361044534453   -1.12203945717236
O          -2.09104249838270    0.52508880217957   -1.29284088072586
H          -2.76714860095716   -0.03311434521608   -0.85042052305819
O           1.78953919154713    2.14677422447123    0.61860560852226
H           2.56754333946488    2.47820482291297    0.16621312970628
H           1.14598815892384    1.87584666676590   -0.08464468385083
O          -3.39201641095863   -0.92149107512738    0.48045037564563
H          -3.95796257760919   -0.43547009182915    1.08511507795579
H          -2.48358433960810   -0.84634750409000    0.82478675915344
O           2.02327590302548   -1.40536326065000   -0.70601914275570
H           1.08763546281474   -1.55726846181404   -1.00466608929329
H           2.38823751560601   -0.79607140709224   -1.35305590912635
O           1.47680125302615   -0.22942496987064    1.47038959159045
H           1.83010365706871   -0.77589787276132    0.66268628058137
H           1.73433517568879    0.74471254482853    1.29228372893467
H           0.42186090747725   -0.22179299953023    1.27049995033807
