    19
        -40.90976908
S           0.64496317419955   -0.40576974463203    1.80314943139275
O           1.04019676366072    0.96530639465694    1.53719086283577
O          -0.79658917749270   -0.56833410058035    1.85073835740896
O           1.27392953433804   -1.34843284756981    0.87647826881669
O           1.20486418772828   -0.78501845958856    3.22807118176497
H           0.77832602562959   -0.15679443710876    3.80311016219703
O           1.08319561416905    1.54705753661305   -0.97122783248778
H           1.95020199317069    1.90200029167758   -1.17601291889003
H           1.05625204013437    1.42297111978064    0.01775858573940
O          -1.86109284011282   -0.90787163428094   -0.46960433412252
H          -1.54156838217298   -0.74394439157171    0.46058541581869
H          -2.38396944649053   -1.71116979717713   -0.43862508009996
O          -1.41794535803951    1.22143549856897   -2.34690693461389
H          -0.75587505682402    1.73942814457519   -1.87922898352643
H          -1.93223726225723    0.75865985672395   -1.67852836792172
O           0.50826582658800   -0.89929284759193   -1.41969598374599
H           0.91344969164185   -1.19199376552864   -0.47443528297370
H          -0.50127098072059   -0.93534002479533   -1.25588665157749
H           0.73690364285023    0.09710321782890   -1.46692990601485
