    19
        -40.92135382
S          -1.41565088130349    0.01975256576820    0.65642181205238
O          -0.87496505082387   -1.03471669826631    1.48551890013257
O          -0.96664851242830    1.34360647527984    1.08979661265534
O          -1.17552953093547   -0.18617034836329   -0.76312783211838
O          -2.98312740776338    0.00252263909979    0.83863003079028
H          -3.08691953788494    0.04805661969560    1.78410681144853
O           1.69250242294203   -0.92191725890182    0.97352997788189
H           1.61176087181844   -1.39653895592981    0.11201599318186
H           0.80443933134436   -1.05178544193425    1.38242485740743
O           0.70278994484532   -2.06410264798699   -1.19522472604323
H          -0.04836911299535   -1.44043771131116   -1.15621946553197
H           0.33812404574855   -2.93364436969026   -1.02142254217632
O           1.44513080400119    1.49321169825477    0.49106028738117
H           0.47349322533971    1.55636619336097    0.85448404275778
H           1.69871743392377    0.45346236328066    0.70857530934427
O           0.54628266241185    1.47111242972199   -1.89720830821080
H           1.29779668198639    1.55494219301956   -0.51437049101037
H          -0.14905936784846    0.82925549532967   -1.62662412481701
H           0.08923199762141    2.25702477957275   -2.20236717512523
