    19
        -40.91892673
S           1.29220029966656    0.26192083034958   -0.56506879552085
O           1.81343315423599   -1.01262171868421   -1.01013751008869
O           0.09955953708732    0.69692268467942   -1.24881876809998
O           1.09955965545506    0.28114085131833    0.89719888821709
O           2.40655545598515    1.34572859894021   -0.85527297752393
H           3.22464081537277    0.91317686406173   -0.62856531435056
O          -0.15817869837031   -2.63761923342260   -0.54087067919337
H           0.59866767099236   -2.07133861176635   -0.84036371859802
H           0.21355554134311   -3.49777049372580   -0.33354699043578
O          -2.35701717299244    0.59850152420897   -0.01506851558247
H          -1.86838787203626    0.52070857936657   -0.84985006012802
H          -2.02461704216226    1.44494844978457    0.36102940988136
O          -0.60610190784550    2.51407116758172    0.61993647966591
H          -0.23722762752158    2.13555452357412   -0.19570088513329
H          -0.01148463599244    2.21949551497949    1.31602713924436
O          -0.96697534385505   -1.04136881979600    1.26305950005480
H          -0.76768360946928   -1.79311047116137    0.59744582427114
H          -0.07848000062367   -0.47864528147777    1.24305051194190
H          -1.67201823926796   -0.39969498882530    0.78551646138995
