    19
        -40.90985779
S          -0.47429716643533    0.05399598847165   -0.59948337182447
O          -0.98497540474194    0.47060347582257    0.67485361960979
O           0.87778343618808   -0.44719901312953   -0.56178331186627
O          -1.39176973759369   -0.99055864644199   -1.23015695498243
O          -0.56306148109485    1.21219562037988   -1.62092786238153
H           0.28109447112248    1.72122662528346   -1.58426041137170
O          -1.02784600183636   -1.77990692659640    2.15738698336689
H          -0.99271189284978   -0.88009126659547    1.78397709685257
H          -1.86543644220323   -1.84920381731306    2.62032304616925
O           0.31947832916962    2.97905113403410    1.06704484932986
H           1.03616131117409    2.82576926293681    0.44575159533786
H          -0.21533320262822    2.17732142613704    1.08678839063632
O           1.92930640715164    1.89414739316981   -1.17543931514600
H           1.90404260590969    0.97215586218742   -0.85720446290722
H           2.61994434775437    1.95319023077018   -1.84022831752583
O          -0.34611454714363   -2.97929220132459   -0.10523328226551
H           0.56511612421821   -2.68104102516532   -0.20343565616896
H          -0.60257045002496   -2.74574073499166    0.81857816465477
H          -1.06881071613117   -1.90662337760185   -0.87655077952663
