    19
        -40.92158999
S          -0.28572963635653   -1.41650141153252    0.30127673289812
O           0.57578052402141   -0.91204966346858   -0.75738099003615
O           0.39898767774312   -2.04399188575488    1.39859181142057
O          -1.22006283063806   -0.37423472248043    0.74694217822594
O          -1.17272337814937   -2.53342321793593   -0.38972371582032
H          -1.45555312062753   -3.08573040269488    0.33275401395228
O           1.00110839063997    0.32820795831900    2.44848699242746
H           0.13774514277257    0.58181427267963    2.78318744200067
H           0.91142673145297   -0.60887633240507    2.18647092669802
O          -0.62511237392926    0.47681765623254   -2.62415297961509
H           0.01380860175110    0.70251280997775   -3.30327389147973
H          -0.20513726812944   -0.21412631691772   -2.05941396198980
O           1.55174968581120    1.41690990577363    0.10538977954234
H           1.53424372868962    1.20159613267972    1.06804384443850
H           1.52784003893508    0.53876113745485   -0.32322611349223
O          -0.85386151937212    1.77334586630652   -0.43180146410166
H          -0.88682634269226    1.44662643090708   -1.39280290936066
H          -1.13877170758387    0.91356033213359    0.10932268892318
H           0.19108766564864    1.80878144071343   -0.19869039463547
