    19
        -40.90985788
S           0.44728694780947    0.38672749186210   -0.48546334924221
O           0.62442817318643    0.17952736522894    0.93102451548029
O          -0.75101017082686   -0.19243966710064   -1.02107131844344
O           0.50815492217308    1.87975892331318   -0.79770156377015
O           1.68793993441429   -0.14597427454817   -1.24030190139816
H           2.00912674803222   -0.95375285673115   -0.77421518070750
O           2.10027144020867   -1.98129012659284    0.58714014816505
H           1.54785480658269   -1.33219263348074    1.06193581319476
H           2.91027705959906   -2.09644911359256    1.09017240979382
O          -0.08703425526390   -2.96503306277811   -1.15631937490519
H          -0.46495015372887   -2.07942813710382   -1.20158609670118
H           0.62736398373500   -2.93507046317384   -0.51446925967182
O          -2.74923759899084    1.12599140452625    0.21712417813902
H          -3.41311050601440    1.38824374808505   -0.42410170883353
H          -2.14879467099165    0.51107644440037   -0.24291663686416
O          -0.80442693416934    2.62784223433492    1.21002082473265
H          -0.39625167836511    2.01299716405066    1.82993627499619
H           0.01511083942010    2.35519285480543   -0.02337377847412
H          -1.66299888681202    2.21427268451793    0.95416601451104
