    19
        -40.90985784
S          -0.32120746767813    0.59862632408456    0.35344423493903
O           0.97479250676781    0.80317599443709   -0.22686656098145
O          -0.82949382261664   -0.74386773928186    0.21180580566846
O          -0.31761843215536    0.99350195340895    1.82809256595441
O          -1.34176939763789    1.59810569922848   -0.24001177559272
H          -1.76040782160470    1.17939478213474   -1.02893845688978
O           0.38380438441031    0.93734445478678   -3.01614323487534
H          -0.46565896414476    0.49094907082245   -2.96733631939117
H           0.75413055382524    0.94066879704016   -2.12615448576078
O          -2.16779848917692   -0.17187721640012   -1.98972020713417
H          -1.74869760696786   -0.73030098393040   -1.30820569702428
H          -3.07374293834927   -0.47279473280425   -2.09509666712598
O           2.61082811504743   -0.80457586625920    1.18855744447308
H           2.14189751920456   -0.24750523101829    0.54041247169413
H           3.40669781718929   -0.32689452307176    1.43163551868829
O           0.47400621837726   -1.22685194939346    2.69828527149134
H          -0.02639899700628    0.15018369338728    2.35015205210783
H          -0.06533440143231   -1.76315002729689    2.10626556441985
H           1.37197122394849   -1.20413248986788    2.28982247534300
