    19
        -40.90985787
S           0.63505433000265   -0.20140582143124    0.37701601567208
O          -0.33384821042311    0.57204993149589    1.09885975247601
O           0.27901141062357   -0.46667180223267   -0.99543040958452
O           2.00570035997263    0.46847052565640    0.43187583692854
O           0.90675718688303   -1.53975748983512    1.10356991670110
H           0.27978046237406   -2.21474256750566    0.75094995261838
O          -0.81066194117958   -2.80146406375542   -0.42459054287048
H          -0.61546227154750   -3.56937500199264   -0.96737319132206
H          -0.60402374845608   -2.00712750242591   -0.95220275721383
O          -2.38085102842638   -1.34604286560876    1.62740377728077
H          -2.13048823796526   -1.96322714929549    0.93472838414524
H          -1.78957083838770   -0.58779571653995    1.55891304844079
O          -0.37961388969452    2.95037414424934   -0.16865676375304
H          -0.53767581870083    2.13074116397070    0.33479156768091
H          -0.35180569711849    3.66276453279434    0.47346020804480
O           1.65236969424266    1.96448745785000   -1.55585958619452
H           0.93629095517726    2.51906121711915   -1.16446818453310
H           2.03668776805308    1.12420402005389   -0.36658579600927
H           1.20234952458338    1.30545697745159   -2.09640119850168
