    19
        -40.90985786
S           0.52806706264081   -0.54844944859496    0.08102524555771
O          -0.52011562132123   -0.16404749851454    0.99439386656906
O           0.58532943353723    0.23935657100047   -1.11654108813125
O           1.87272539979005   -0.52577396197996    0.80335960456210
O           0.37991043236868   -2.04848959136413   -0.26657344909931
H          -0.58232698271623   -2.26114827873586   -0.31048026888133
O          -2.22290697135689   -1.93524954409096    0.03133436860606
H          -1.92020610797723   -1.15405269795947    0.53146238568499
H          -2.74034435864251   -2.48021708450806    0.62939520156216
O          -1.60426822112079   -0.78792335619873   -2.63269546149889
H          -2.07628990004330   -1.17482561440169   -1.89060922025562
H          -0.82606481334340   -0.34590066362440   -2.27464592326082
O           1.17036023528001    2.72773039902252   -0.26136242445234
H           1.86530526562399    3.10445500127111   -0.80518346445263
H           0.87730522844439    1.91460699253208   -0.71214068348784
O           1.43901734791215    1.57590330900615    2.11062146952598
H           1.84964328632621    0.29827249886169    1.42688601904237
H           1.40445705171184    2.19248646460468    1.34112773664896
H           0.52040222288404    1.37326651366455    2.32062608576279
