    19
        -40.91907716
S          -0.88752411990045   -1.25577123878106   -0.64658846188257
O          -1.78249743462484   -0.78784685821316   -1.67904282419822
O           0.52356071947478   -0.96119065696489   -0.97465380140905
O          -1.21344607233519   -0.78934504999026    0.68138280374559
O          -0.98690207201217   -2.83543302435969   -0.62112162403901
H          -1.12118117752083   -3.09215853993661   -1.52976540976507
O           1.69351724809953    1.58476807622666    1.46578726892724
H           2.63408516134169    1.74129957980609    1.56749645274873
H           1.53433718466837    0.62205963257855    1.69068651055605
O           1.22607750706802   -0.97154411384594    1.67114833778837
H           0.25028895778337   -0.97079345796928    1.61187507407763
H           1.49292971409519   -1.27910755698990    0.79514675089531
O          -1.78201751825887    1.59276481365746   -0.58024104256905
H          -1.90561966766930    1.22610548822460    0.30500932961834
H          -1.98476879927440    0.83466251710338   -1.17295407801810
O           0.72573797864736    1.50960371726962   -0.86736100950389
H           1.14634272120958    1.64801062642306    0.07368584790498
H           0.72672324181857    0.46413654916426   -1.01063454924717
H          -0.28964358259857    1.71977948660741   -0.77985557563827
