    19
        -40.91596421
S          -0.59716480654310   -0.41749573544444    1.57886608012997
O           0.76341970974290   -0.50691733095313    2.07427465912466
O          -1.10745407065518    0.93183950198388    1.53372179560431
O          -0.75814375101175   -1.12712162793426    0.30274508955722
O          -1.51257900168983   -1.22416590912233    2.59123257631083
H          -1.49152864097930   -0.67747327442114    3.37034633686848
O          -2.11476458642085    0.94660014570203   -0.88340909800318
H          -2.19675374535401   -0.01349417952559   -0.86100678044158
H          -1.81783460245265    1.16452762739144    0.02769237900398
O           2.68052357682806    0.01313790779931    0.44374570997036
H           3.40611675160782   -0.56236581549110    0.69512243235402
H           1.99013751823830   -0.08694344789774    1.15707251675962
O          -0.01284802209737    1.25078059727640   -2.38272166646227
H          -0.84195585408289    1.26580928779691   -1.81771343506759
H          -0.30446334843463    1.19837472845616   -3.29474922868573
O           1.07394714080697   -0.76794799582885   -1.33275762624411
H           1.83281703122730   -0.43811089521911   -0.70711708579659
H           0.30070215685967   -1.01770440454639   -0.66224558919631
H           0.70782656441522    0.06867081998594   -1.83309907578633
