    19
        -40.91793134
S           0.48356845421858   -1.41194026347414   -0.92667224785934
O           0.52054909814252   -0.04070763386948   -1.39147441955606
O           1.77598698422866   -1.92981595495682   -0.54033708734461
O          -0.51719850455936   -1.58379552763620    0.13892548821154
O          -0.03275676837352   -2.28257663553749   -2.14135652822428
H           0.10835218422806   -3.18409365068456   -1.86521332803225
O          -1.44270759081102    1.89928126211913    1.36640975752373
H          -2.31458595323022    1.77852665925532    1.74792521585624
H          -1.54963741552703    1.76605396254663    0.38476503416748
O          -1.65989460372646    1.38269529098473   -1.18743862625407
H          -1.55053062606058    2.07826587172258   -1.83862069349880
H          -0.89281634852983    0.77476898430832   -1.31308500147276
O           2.28594789580860    0.31580439868015    0.70947449839976
H           2.35134213529193   -0.59342559775371    0.33874624755844
H           2.03482627667169    0.85239043447387   -0.05158764218638
O           0.09698433655983   -0.03393670869332    1.94775293600601
H          -0.23212053899104   -0.76967142074296    1.24089676849101
H           1.04090735654141    0.19158229715447    1.59974742860257
H          -0.50621641189251    0.79059424209844    1.78114217961664
