    19
        -40.92174072
S           0.09226824316021    0.63803170678312   -0.62208730450756
O           0.87654839367509   -0.34581471713914   -1.33808380466183
O          -1.29461728387840    0.09272475216255   -0.33518560009762
O           0.70138549805495    1.12555512579543    0.58053710137251
O          -0.17900416577289    1.83168992073019   -1.56329176437218
H          -0.33676408794624    1.43800700360937   -2.46021311895908
O           1.39295047702704   -1.72345415741045    0.93399145444651
H           1.34728970967247   -1.39116353858298    0.02230706008889
H           1.86793485991861   -1.05412905913393    1.43363998268843
O          -0.18412490287799    0.31712918514391   -3.67161925501847
H           0.47195911341816    0.50338029034220   -4.34803922795134
H           0.24601167197439   -0.25447693201076   -3.00900512274974
O          -0.40325623672453    0.76543138817208    3.00812773070805
H          -0.98038443210297    1.50508754461547    3.20501802104278
H           0.09930651076694    1.01157269294223    2.20840222463955
O          -1.14604616960375   -1.38832894861985    1.63673247923326
H          -0.25037738841135   -1.76591409728601    1.46923182174983
H          -1.00894618309013   -0.71270701215775    2.34044510531391
H          -1.31213360726326   -0.59262114795426    0.50909221703177
