    19
        -40.92174064
S           0.47202150731674   -0.71957915462427    0.24792330642492
O          -0.84060603846766   -0.92651665077764   -0.48495889436505
O           1.47940799867228   -0.22069584834739   -0.66441120806487
O           0.27523915211241    0.08611795467327    1.41721040810732
O           0.86768687174496   -2.14634843399641    0.68624940765895
H           1.25222958776772   -2.57965148607417   -0.11918746435497
O           0.48547593280744    2.29322450994021   -0.53642675154058
H           1.00259215301262    1.49119862240799   -0.71853530511534
H           0.60962720288416    2.47872409958829    0.39806392821548
O           2.03795911299527   -2.64240666819189   -1.57724001642241
H           1.96461594337198   -1.67015541900157   -1.59223781231888
H           2.97511229778447   -2.85148183174046   -1.55020441477796
O          -2.06429123935313    1.29900938771949    1.96557746532445
H          -1.17528880036950    0.89753464880737    1.93248884818359
H          -2.60928397911099    0.71003311406501    2.48996784876645
O          -1.95863795299748    1.26672373040411   -0.69140759910552
H          -1.15664927222188    1.82887087380021   -0.80899961033981
H          -1.38764944829525    0.00110350434916   -0.63961118220382
H          -2.22956102965447    1.40429503699842    0.24573904592289
