    19
        -40.92052663
S          -0.42400066708108   -0.56206589853063    0.45723986622842
O          -1.02996406199827    0.22712795453567   -0.58615424657796
O           0.98059010669522   -0.29662215197579    0.64492498507353
O          -1.15593187959916   -0.35718729384656    1.78672247520752
O          -0.66127261601553   -2.04657455942857    0.16599836036098
H          -0.65412877209661   -2.15312764892822   -0.85623041405468
O           1.98497004727704   -1.06442670780880   -1.72981582783021
H           2.71563364569539   -1.66300033789301   -1.56135525299357
H           1.73876457328373   -0.67996873150807   -0.86735803722875
O          -0.72993116728296    2.71836793426296    0.38345963439396
H          -1.58278783863022    3.15590422216311    0.34249886629711
H          -0.82461920374843    1.88238097973311   -0.11089828830554
O          -0.47488661677876   -1.88336620131650   -2.34641735432122
H           0.48170316218294   -1.65121249631593   -2.34856825286982
H          -0.94270470384424   -1.04119754535376   -2.39331041057483
O           0.24295278513329    1.58509721546499    2.59045868989456
H          -0.67142543354618    0.40494462489684    2.27680717394782
H           1.06921079111194    1.21484347626571    2.25822632998378
H          -0.06217215076865    2.21008315560926    1.89377169336263
