    19
        -40.92071383
S          -0.68022157783678    0.36801532770753    1.26291297882852
O          -1.36280094505179    0.00591788259304    0.00499885639388
O          -0.81712403217715   -0.66701233505986    2.26168919083545
O           0.68608500211399    0.75925169134663    1.00297408680837
O          -1.44445927231610    1.63662720274009    1.81388209191089
H          -2.13430029484896    1.26812488744117    2.35844645484451
O          -0.78256261461054    1.63100250280670   -2.04925524005892
H          -1.45509340748425    1.54462697300970   -2.72633629645161
H          -1.11162964371212    1.14912837208131   -1.26462339548482
O           1.18801912305748   -2.03647919545334    1.28230513567948
H           0.41831569854209   -1.67312834563413    1.78076791590181
H           1.91390957283402   -1.43443696373223    1.47074893208326
O           1.59439926367236    0.58212599347988   -1.45636140243276
H           1.47967208083980    0.83336241330458   -0.51079752619782
H           0.91493379227394    1.11540248781328   -1.91989629196343
O           0.34030902090975   -1.51382862081599   -1.05515679962562
H           0.98446727154543   -0.67649355412312   -1.35581279899618
H           0.75337375777289   -1.88352364799458   -0.18714198185758
H          -0.48529282552752   -1.00868306140490   -0.71334394027029
