    19
        -40.92174070
S           0.82539636065085    0.07374747334042   -0.33964740509125
O           1.27130584258333   -0.08707117888227    1.02825462381698
O          -0.03137906062234   -1.10857224992283   -0.75265291201394
O           0.14389862714918    1.30712685337434   -0.60309183615123
O           2.05158877333193   -0.02787167626473   -1.27264869234941
H           2.63027614539601   -0.73268691006755   -0.88186295978489
O          -2.42398165158188    1.39873688300543   -1.40270086113718
H          -1.48767967563445    1.53238419547808   -1.16125613273296
H          -2.45736079260832    1.37719974406153   -2.36050351034646
O          -1.12180295797223    0.72302600432144    1.99973132832120
H          -0.20583778416717    0.42331130958794    1.87761471263321
H          -1.15416511557865    1.61654797554862    1.64790323947868
O           3.27636698019780   -1.66642835519804    0.32551291366334
H           2.58825571618691   -1.28966567960414    0.90474672775062
H           4.12404937003406   -1.38456016190450    0.67861979429645
O          -2.30691181811578   -0.76101586059957    0.14386066980690
H          -2.60839296624423   -0.03310004126827   -0.44753535861063
H          -1.04978021399585   -1.04474216488292   -0.37453013969688
H          -2.06384579900998   -0.31636617016185    0.99018579816065
