    19
        -40.92343663
S          -1.42465209830744   -0.37086639927483   -0.82375862256621
O          -1.67528737402560   -1.09766357112388    0.40262466923884
O          -1.70202455921964    1.05876069082999   -0.67742450957261
O          -0.09004654033749   -0.60881007974767   -1.35055685211127
O          -2.43055419749631   -0.90642316119726   -1.91157396957056
H          -3.27898724972529   -0.70514943937388   -1.52919563797243
O           1.85240544148088    1.16454490367088   -0.89934547785735
H           1.18867573300270    0.59186649215885   -1.33710241342184
H           2.46097208308697    0.55615140754962   -0.46576616811131
O           0.10230170454062    1.98616618175397    0.75605873247924
H           0.89937463441195    1.82468320594846    0.12759483960435
H          -0.72301967585239    1.74403925951489    0.16184709895815
O           1.70342405755096   -1.45141192034156    0.41605024946158
H           1.03205138521500   -1.28146107147843   -0.28121808989702
H           1.76469581385352   -2.40365758203761    0.50281674325302
O           0.07291461794781   -0.12107172887580    2.08519916578499
H          -0.70798732922425   -0.53485519520347    1.64563815513726
H           0.83466781026243   -0.62097862658301    1.72381862972709
H           0.12107574283504    1.17613662381094    1.45429346743639
