    19
        -40.91892656
S           0.74741735849423   -0.21438826738443    1.20472996526651
O          -0.29644107597788   -1.13348481743539    0.82422245408998
O           1.39839633560993    0.36700904413027    0.01575733715940
O           0.33722452373972    0.81463704152118    2.13582840125042
O           1.86877010350208   -1.06821445198579    1.92173789656928
H           2.39318743945112   -0.42661210655247    2.39186511369783
O          -1.54390406871806    2.04679528952639    0.83447920686830
H          -0.91065814909346    1.57237910556337    1.43190597739321
H          -1.53507815769922    2.96682913660395    1.10748683033318
O          -1.45871889549931   -1.00806746807391   -1.66369967588980
H          -1.58245895002636   -1.20337514733352   -0.72114594228031
H          -0.65061133512897   -1.51988470672396   -1.89427374131811
O           0.98086050241493   -2.05778972995979   -1.36871281523570
H           0.64769828170039   -2.00602401355713   -0.45723968278451
H           1.65757562031512   -1.37643691340191   -1.42009429583898
O          -0.47610028945086    1.26823793567534   -1.33595731737785
H           0.40114038035558    0.94543415487308   -0.85333344320131
H          -0.96550377536436    0.35453494794949   -1.58661629850341
H          -1.01279585862086    1.67842097653893   -0.56693998018933
