    19
        -40.91941548
S          -1.01175181033755   -1.14068062593470    0.54796953203032
O          -1.88308803373795   -0.41473616315555   -0.38414917640567
O           0.05768790814520   -1.81713247260586   -0.16320927707262
O          -0.53352192274611   -0.29592453780764    1.61925901201286
O          -1.91323914114792   -2.24987403360618    1.20868280029204
H          -2.18900045702618   -2.77361484829408    0.46287955283563
O           0.02150508953884    2.14139919634726    0.92671777702503
H          -0.57785636780257    2.74633388663546    1.36765277163894
H          -0.17316972200218    1.23921650324652    1.29141385953018
O           2.21131899056292   -0.23783340442586    0.63085050159533
H           1.97468089951115    0.35695386853872    1.34543248516226
H           1.54035970450941   -0.93746448966469    0.63259155902762
O           1.32127347240812   -0.22652094416826   -1.89267076019462
H           0.86111607092284   -1.00773533835850   -1.51899930426911
H           1.99330425127787   -0.03151965385960   -1.21061284536716
O          -0.53456165597452    1.37387356811145   -1.44128784208405
H          -0.25201848496096    1.84738118892184   -0.58252773174423
H           0.29932768465152    0.77804838568824   -1.75020843407322
H          -1.21236646579599    0.64982991437934   -1.08978448994752
