    19
        -40.92453853
S          -1.16794338306383    0.93418037120729    0.29164868404595
O          -1.45402910911049   -0.34394436480529    0.93420019484569
O           0.02377440384137    1.54741216552356    0.86655897639333
O          -1.09641762900295    0.82685381007208   -1.15042219035504
O          -2.38295742446168    1.89237683705159    0.60893542835345
H          -2.40911405497572    1.95073898635835    1.55958775978713
O           1.63787457265778   -1.31760145684986   -0.55099730145745
H           0.71665197860028   -1.61557840447913   -0.94833594207867
H           1.76232503781345   -0.32831707039624   -0.87051840151869
O           1.62353621453632    1.13283323219681   -1.14096568920582
H           1.13375277745481    1.44260262640402   -0.33853714878718
H           0.98372772707561    1.24534532468466   -1.85359269586198
O          -0.72194180358299   -1.73680180872969   -1.33167501703240
H          -0.96167927479979   -0.78593182509514   -1.45760461567972
H          -1.22350568172941   -1.99367669717278   -0.54878665509935
O           0.92325237358004   -0.86891910790987    1.82282995930661
H           1.46179201929218   -1.23379303092126    0.47619640189961
H           1.19462344539398    0.03756061218158    2.00937912871745
H          -0.04372218949642   -0.78534018948089    1.62209912369633
