    19
        -40.91893428
S          -0.16118123575379   -0.09582253905803   -1.72532149339852
O           1.08952285354725    0.38189189909249   -2.25825377963140
O          -0.07207575900480   -1.31378787924866   -0.94409952000779
O          -0.88563261492013    0.95177775870254   -0.98968285430652
O          -1.07685920696581   -0.44584205379560   -2.97373873058795
H          -0.80597779289798    0.19596011959710   -3.62318339226811
O          -1.27471114183545   -1.76629091429698    1.30540714295375
H          -0.78528649911508   -1.71869037121755    0.44364685807780
H          -2.09780540239224   -2.22323450118879    1.12293328556634
O           2.19630881345523   -0.08835404699634    0.09047491522053
H           1.88241421875642   -0.99628539652406    0.14030594859545
H           1.95283416102000    0.19942324694516   -0.81294495002154
O          -1.25672628806662    0.76853863990212    1.43548610000495
H          -1.16958736693960    0.89274496626838    0.37589587743954
H          -1.32600043074132   -0.24837228663277    1.54431107128357
O           1.13477651984832    1.37442302120180    1.98972840410133
H           1.35690401776026    2.28249982233792    1.77486854197281
H          -0.31699556568024    1.04123573501820    1.77631885685462
H           1.61607870992458    0.80818476988893    1.32784769816219
