    19
        -40.92136372
S          -0.71260221347564    1.10145342062984   -0.45050348947741
O          -1.27728193315510    0.17838040334118    0.54996441061143
O          -0.48629697213362    2.41948064296379    0.08851829660439
O           0.44045975151153    0.51669412854843   -1.09691767370473
O          -1.83627990285549    1.23881747743342   -1.56363729219904
H          -2.36381943433602    1.97732105567767   -1.27273856975610
O           1.74815303602590    1.58650759956586    1.20842496699571
H           2.31230988561704    1.50699802125878    0.43406414074705
H           0.94235462092217    2.05598247084623    0.89375673717627
O          -1.34639335441991   -2.08781891234450   -0.88788261644804
H          -1.59419180363167   -1.83859306097738   -1.77986064161646
H          -1.49308216205403   -1.29667912428194   -0.33589709117176
O           1.25007587513838   -1.85675415799116   -0.33361277504016
H           1.16366323606433   -1.00826132111787   -0.82505347870058
H           0.39770138537894   -2.30441320983826   -0.53058349726272
O           0.73019783430999   -0.68078548944950    1.78494166812537
H           1.05585406299200   -1.31106582984764    0.95249217458372
H           1.26649470001212    0.18860078909921    1.70832306789347
H          -0.19731660192592   -0.38586490352040    1.45620166263672
