    19
        -40.92267727
S          -0.04804046735748    0.59984238535264   -0.87807147698328
O           1.40397156122032    0.55371789484489   -0.96567172540937
O          -0.67574528018953   -0.65137276764414   -1.23722527848080
O          -0.45462395441237    1.01426185924660    0.48802046336227
O          -0.57735453688394    1.70062891547677   -1.83891025188667
H          -0.08139416898820    2.49974824295172   -1.55278887974978
O           1.10179182006404    3.18520422533644   -0.47575302316850
H           0.66250259623174    3.05038666912972    0.37015752894672
H           1.64194727077654    2.39116899244588   -0.61698960554876
O           1.64313821248428   -1.70276591304539    0.34716419740485
H           1.73307511965701   -0.86168186146149   -0.16113075331410
H           1.30803629144003   -2.34632299809269   -0.28329637028453
O          -2.04362974653915   -2.09138568474004    0.45487674818691
H          -2.94457288796597   -1.76419676362948    0.48862788545735
H          -1.61346821817316   -1.64302404070379   -0.31451669937037
O          -0.25229455922774   -0.99432820304740    1.88385186887127
H          -0.35910564750169   -0.03566569743103    1.38120068698620
H          -1.03113325395514   -1.53259773840348    1.49068339886350
H           0.58689985933168   -1.37161750658811    1.41977129612288
