    19
        -40.92136381
S           1.18713751655672   -0.60762405822876   -0.37996080233630
O           0.73553185598564    0.70211613863860   -0.79292190956628
O           2.35011761132305   -0.59274151113099    0.47233040179525
O           0.07803694456154   -1.38508556634227    0.20034941840511
O           1.58918099775572   -1.38818977347446   -1.70287456286775
H           2.27312935711000   -1.98878260928530   -1.42041958681151
O          -1.81517019406943   -0.96430587101921   -1.65613245555517
H          -1.16167045305076   -1.28944119974496   -1.00848775075060
H          -1.37191777217703   -0.97106372764071   -2.50616881723315
O          -1.76268035271356    1.36894438958780   -0.36926046104696
H          -2.13952761517477    0.62314822719251   -0.88636933961116
H          -0.82483209897914    1.38341028619869   -0.66877458803678
O           1.24498570393052    1.28107626613986    1.95921387204101
H           1.78860826479525    0.57376624678873    1.54342367447875
H           1.32642674289647    2.03923447357127    1.37378867280718
O          -1.07298311717828    0.24035822341955    1.72597568634981
H          -0.21926146199046    0.74002707307362    1.99132898303510
H          -1.51069118100052    0.80806032304967    0.89892210492756
H          -0.69442075857788   -0.57290733080447    1.22603745998642
