    19
        -40.92158997
S          -0.91862146747110    1.04698096338448   -0.48867250247045
O          -1.28178426175121   -0.29662757449070   -0.06391559612071
O          -1.31406812092289    2.09868307605155    0.40804971913357
O           0.50797173060393    1.11146278012364   -0.83259674007921
O          -1.70677968494739    1.27493701094055   -1.84456542646823
H          -1.76356924735545    2.22225668073673   -1.92476019538630
O          -0.33259853555844   -2.23915080466483   -1.54060436285430
H          -0.68376525850886   -3.07279003892049   -1.22114654700054
H          -0.86526309598797   -1.52640253832514   -1.11513048603638
O           0.52441064313602   -1.03274543626093    1.75729667158620
H           0.71970780289805   -0.12822626235995    2.09919262043110
H          -0.34514137696179   -0.92732361706243    1.32349415643718
O           0.75706876935710    1.58751544498594    2.00234521848999
H          -0.06800225887853    1.87669473022116    1.56593975928276
H           1.46748575532591    1.95136023770828    1.46887129732113
O           1.65759683591220   -1.05054625573472   -0.46051947251329
H           1.04097246941553   -1.66249016761523   -0.98627967321430
H           1.28340874900473   -0.09310832567685   -0.69928390439274
H           1.32097058268900   -1.14047989304496    0.55228546385381
