    19
        -40.91285594
S           0.00457363093508    0.45973992096215    1.64861676520847
O           1.32348669058353   -0.01597884750191    1.95877848469530
O           0.00689086187571    1.68502071817414    0.83828672662489
O          -0.88854631567574   -0.53561231858865    1.06639127187353
O          -0.67874626510875    0.85413390994536    3.02608276734049
H          -0.00414872499661    1.30817676355067    3.52334745024952
O           0.26722197982761   -1.58706460301493   -1.17236079138545
H           1.20615275993103   -1.35134158026393   -1.01607871859046
H          -0.16737397165666   -1.43841925632832   -0.31553943590122
O           2.64222059071053   -0.75857668143513   -0.24573776392688
H           3.32294667680160   -1.37453309849209    0.03195788751222
H           2.24183840821619   -0.40904025345167    0.57544640420934
O          -0.92906506065574    0.17819369966538   -2.61768773103443
H          -0.37582776893938   -0.52863398584946   -2.15571653059050
H          -1.52353844128872   -0.28445760976612   -3.21152371574028
O          -1.92433299309692    1.10952169836404   -0.51429918277236
H          -1.55789782070737    0.80827588423598   -1.46001461688596
H          -1.86796709467771    0.28573755366755    0.06246182316604
H          -1.09788715206586    1.59485809614248   -0.02241111406509
