    19
        -40.91836643
S           1.68611021832700    1.02305441422073    0.01819263259663
O           0.88654710219981    1.98512113813761   -0.71779457169683
O           1.16436898974238    0.72644964032920    1.33244850970865
O           1.91236318438956   -0.19360821800867   -0.77769248139169
O           3.10957398609466    1.67106264180224    0.22444469228166
H           3.33485056842094    1.95579777220054   -0.65605797632227
O          -1.14731819689118   -2.39423398710804    0.55121661488105
H          -1.21646799901751   -1.56611778578757    1.07638379915348
H          -2.03405946509752   -2.74963323253632    0.46637705487384
O          -1.44380617176899    0.88507808320803   -1.02727849032313
H          -1.68480863373733    0.74504155104287   -0.09649804676820
H          -0.64306176448303    1.46781109457279   -0.99951588089976
O          -1.30431526089901    0.06376743886872    1.60410719069657
H          -1.57394090083944    0.30728746868900    2.49130338424509
H          -0.34282755924147    0.32324721157076    1.53878515535825
O          -0.19099259584472   -1.22240459611912   -1.53572268070179
H           0.77481204419035   -0.84232048673955   -1.26371252455862
H          -0.48591940355870   -1.82203985586397   -0.77348063616070
H          -0.80110814198758   -0.36336029247848   -1.45550572497095
