    19
        -40.91285626
S          -0.43357188785827    1.18617602890940   -1.15545914852996
O          -1.67188819571060    0.64671925870097   -0.57921821715525
O           0.57651863736251    1.36447886041117   -0.11798991614963
O           0.01103817288172    0.46810412913913   -2.31689594411272
O          -0.78379594796271    2.65938488736224   -1.63174569472074
H          -1.23334372304847    2.55612186312555   -2.46580578280778
O          -0.19732002285058   -1.20869336744255    2.49949533657137
H           0.27112724431486   -1.22995968091675    3.33622772924796
H           0.50201034991493   -1.28943285774611    1.77567282357725
O           0.68040979250789   -2.05031819870621   -1.71650616417787
H           0.35598731918400   -1.17347566361404   -2.00416610099353
H           1.28111520764407   -2.34949877436665   -2.40171863290402
O           1.55867668471443   -1.07320281957581    0.62003737876033
H           1.43642068316064   -0.15332336601554    0.33015907737598
H           1.29982814556601   -1.61253188188394   -0.15684737160937
O          -1.06445410481541    1.01717658593065    1.74168992426195
H          -0.23311810090424    1.36127819319340    1.28772418633087
H          -1.56619257750838    0.80441718906640    0.81413786131993
H          -0.78944766658306    0.07657961443297    2.14120865571649
