    19
        -40.91966055
S           0.89156217479188    1.37969769739124   -0.48245806163350
O           0.07307632103328    1.19409639979825   -1.69046456754867
O           0.09527096998531    1.94057447423990    0.59820636479319
O           1.57996207764470    0.16786647516893   -0.11272939994668
O           1.98172569748512    2.45146826878713   -0.85775969001999
H           1.46156032218078    3.22106962444295   -1.06759833227238
O          -1.74136495603445    0.23312681496354    1.11798316473329
H          -1.04483325247542    0.94208075321450    0.99602922534326
H          -2.55290966569164    0.68908972678574    1.34881545313667
O           0.46385318312919   -1.41517916793603    1.85127167943234
H           1.04330866095156   -0.74805858743684    1.44808325647477
H          -0.38526767081375   -0.97789072238486    1.98265101236518
O           0.58711082076538   -2.31104292347115   -0.63008930073231
H           1.29332803299619   -1.66067444107422   -0.77919566674426
H           0.50559245535177   -2.31980358205455    0.35468668748599
O          -1.30697597623409   -0.79378827885396   -1.20823130387700
H          -0.75623372084151    0.05256000680680   -1.54218978536109
H          -0.55487991927609   -1.54112130459141   -1.03001657336824
H          -1.63388556494668   -0.50407121378727   -0.29699416226173
