    19
        -40.92079113
S           0.99086499923208    0.14327449139659    1.09851068057974
O           1.55576556905770    0.29939749197006   -0.24331376467912
O           0.78069530263588    1.40525808498192    1.75977828785232
O          -0.17964047307904   -0.72296442562077    1.07650851921318
O           2.07411210353569   -0.65062515061311    1.93584270689624
H           2.77789923614631   -0.01797814382107    2.04058422147504
O          -0.78743582728382    2.67596671290418    0.05338780034295
H          -1.22905345493785    3.38246526497780    0.52847172805900
H          -0.14127966439638    2.28668877066497    0.68162789725753
O          -0.07721145788785   -2.71541331947301   -0.62634764132804
H          -0.88668529811421   -3.22326619572673   -0.54196824049289
H          -0.04497048180693   -2.10725992868707    0.14952927281220
O          -1.82498793819280    0.37620780115414   -0.71024420334565
H          -1.60393048628283    1.32693192248652   -0.57128435096485
H          -1.48223296503778   -0.06308080363370    0.09431559425687
O           0.07062714990047   -0.57412098615434   -2.02040246838273
H           0.79636793904998   -0.15724259610068   -1.37950284729424
H           0.02913784751825   -1.53406650784763   -1.69289005549557
H          -0.81804210006300   -0.13017248286171   -1.63260312675064
