    19
        -40.92453852
S           0.52114457501699    1.36805921542451   -0.42343808351493
O          -0.07679943750462    0.75387650236949   -1.60333102097255
O          -0.48189960057391    1.57988444619126    0.61452958658687
O           1.67368115762077    0.63661342094591    0.05909123461584
O           1.04531169910613    2.79368151346823   -0.85650968980524
H           0.27310330969213    3.25507000597210   -1.17059779954402
O           0.94231650724304   -1.61964024816282   -1.30778183115133
H           0.54986588956585   -0.76291522826626   -1.61096775621013
H           1.79543991787612   -1.36029030131805   -0.94078354590903
O          -0.61344659522070   -1.98361292581807    0.64144771280334
H          -0.11562271984811   -1.44408973310337    1.38725165949418
H           0.04268586202178   -1.98471819913893   -0.17458431515336
O           0.60849535381787   -0.40889045968230    2.18465035418429
H          -0.00740259261525    0.30680224251250    2.38193726940582
H           1.19911904777249   -0.02090317190622    1.49324426152516
O          -2.20647476952945   -0.19836671370703   -0.14732579381308
H          -1.39198704266965   -1.35319696671237    0.34209162945145
H          -1.69672379750622    0.56396656147045    0.22865245621151
H          -2.06080677437148   -0.12132995019539   -1.09757631839471
