    19
        -40.91984723
S           0.07153650450943    0.78867287295518    0.74452436538305
O           0.80149496006510   -0.44377869938274    1.10410874132842
O           0.42603005599017    1.18752358170928   -0.62207929734405
O          -1.34935683199753    0.63237074731204    0.92225296142519
O           0.56369440837165    1.90330281450884    1.70514630339128
H           1.46526687449289    2.12393728763355    1.38438125574736
O          -0.26188966061459   -0.82522410927128   -2.13144375894429
H          -0.06689349377864    0.00802883662166   -1.63189304740774
H           0.41896763415797   -0.89905129909779   -2.80361128473708
O           2.63799891133477    2.37282360243633    0.15593311481587
H           2.68647531059618    3.27555216000285   -0.16720746287046
H           1.96564667521735    1.91514175866349   -0.38750404443363
O          -2.54151689409865   -1.68228316214773    0.79781147576944
H          -3.23241401371660   -1.57126118706307    0.14073733992726
H          -2.19981814300096   -0.77416288222573    0.98882037854918
O          -0.23673211542543   -2.32327603230297   -0.05876908403295
H          -1.19530891199081   -2.24719885676614    0.30157635365789
H          -0.25581508092499   -1.88686402513358   -0.97684174528673
H           0.30263379080882   -1.55425339844789    0.53405742506510
