    19
        -40.92453853
S           0.71863908740214   -1.34368500012080    0.02390341775648
O          -0.66829857114969   -1.59181975067531   -0.35449091662313
O           1.38793287009950   -0.51811407247793   -0.97480621277730
O           0.84129512905214   -0.80463256241944    1.36202068931177
O           1.45093310822463   -2.74310485969491    0.03652649831869
H           1.36028491840506   -3.07659099532505   -0.85138849512643
O           1.49469021340082    1.67828365407428    0.41247369808675
H           1.62960937317399    1.28654369555187    1.28318090632666
H           1.61255629387608    0.91476450349741   -0.20638975830008
O          -1.59428753142767    0.04565517630465    1.66309608943672
H          -2.02945356913229   -0.62429084545475    1.12248807304812
H          -0.67488596981184   -0.30279772840928    1.76651140013036
O          -0.99360601964491    1.93023483173887    0.10044738334477
H           0.04041461063962    1.97558569228723    0.25903985570506
H          -1.34568292402933    1.24709617317586    0.81076135880022
O          -1.00714348287158    0.43820706082037   -1.92947234147699
H          -1.02087813138920   -0.41557318594625   -1.42624276777963
H          -1.09020506815600    1.42799176692214   -0.81147334112850
H          -0.11191433665098    0.47624642616646   -2.28618552697801
