    19
        -40.92453687
S           0.92606866160554    1.01999648253352   -0.65172850479552
O           1.00106611096324    1.23375008215294    0.78873098836873
O           1.41486751127028   -0.30876137136505   -1.00434527712899
O          -0.39409840127046    1.28588373501622   -1.18343528648069
O           1.89986711865634    2.06217272902043   -1.33035206499238
H           2.76511602480393    1.84462444424657   -0.99585058051063
O          -1.42592576351751   -1.39640709722454    0.86006073852838
H          -1.41494883842575   -1.40796212639450   -0.18642458686964
H          -1.60328989782154   -0.39701556148270    1.11716555144867
O          -1.13225876549548   -1.16288331559657   -1.63248604088226
H          -0.98432605431941   -0.18529753064568   -1.62993315817577
H          -0.26033996143040   -1.52200538027705   -1.83572407069113
O          -1.54507586506749    1.08366821303361    1.29293646492140
H          -1.87219041401330    1.49438494946779    0.48417874960912
H          -0.57038342715557    1.25361772165755    1.26196489680954
O           1.05629847039437   -1.46944794366006    1.28548495278646
H           1.32219585660487   -1.16271334961241    0.38135952502894
H           1.24630593875316   -0.70908161300071    1.84755513637555
H          -0.42894831451915   -1.55652307788898    1.13084256667461
