    19
        -40.90719784
S           0.58778475675194    0.97030872277995    1.38757331476540
O           0.58463160137438    0.98515745191785   -0.14006170706787
O          -0.76021624710277    0.88481828166524    1.86551108861427
O           1.53561189982242    0.02927070150808    1.88333444778528
O           1.12527790879212    2.41195513176404    1.71783208157110
H           0.41009597690387    3.02594900875192    1.56059187116660
O          -2.50621682640478    0.61853892519609   -0.21471678514533
H          -1.90191163487403    0.74450807385608    0.53894881352537
H          -3.11516320635799   -0.07089750322572    0.05803548307447
O          -1.32454669746960   -0.18370318362598   -2.56243122064608
H          -1.85114280289762    0.15174251288417   -1.80854884525766
H          -0.80151557274655    0.56194853532339   -2.86234547505007
O           2.43779399954207   -1.88228536940240    0.15398278687511
H           2.26184253473784   -1.16990878529053    0.79668307454451
H           2.66993290397466   -2.65271819770405    0.67615952555299
O          -0.05329861109745   -1.36358494024999   -0.58424194543697
H          -0.42065337901081   -1.28439235965297   -1.49205720910452
H           0.83832925500138   -1.77161731849627   -0.59258722381432
H           0.28336415105078   -0.00508968799197   -0.38166208595451
