    19
        -40.91372174
S           0.28958805205561   -1.59238554201253    0.69281528238813
O           1.07139622173353   -1.86910040677810   -0.47421527697020
O           1.08092693556394   -0.69143950521909    1.65675710000320
O          -1.02366979707121   -1.08232734575708    0.48357249795623
O           0.18454195833601   -2.90737282149208    1.53485430786111
H           1.03568841461518   -3.33569426531992    1.47475686563834
O          -1.71636407719434    0.51970510433070   -1.86551727638172
H          -1.86146754088750   -0.34753922702987   -1.47470631594467
H          -1.90701928284329    1.14668179577340   -1.14137929696038
O          -1.76484508865739    1.62106759134401    0.63534225780859
H          -1.72822467559892    0.67679393123337    0.83821553702480
H          -0.86653664978169    1.94813689514918    0.75684294446661
O           0.93262219756687    0.54433016698868   -1.73864808389762
H           1.09875603559257   -0.38869913057575   -1.53204553477585
H          -0.02808965447959    0.59819385715966   -1.97129953373945
O           1.10602031014235    1.58177254358145    0.57280797004983
H           1.94157894872947    2.04487270914920    0.66509518290398
H           1.05407897170143    1.26592096868354   -0.39995712865884
H           1.10101872048246    0.26708268081393    1.28670851118527
