    19
        -40.92079122
S           0.62628987843103    0.31772137363689   -1.30925621490195
O          -0.32694133952626    0.07228549616673   -2.36050207100244
O           0.28594444246833    1.49310484629446   -0.50513808444284
O           0.89347248198992   -0.83655417885098   -0.46234468910015
O           2.01109554684529    0.65001823679426   -1.99983290743452
H           1.78358303993956    1.31958531825693   -2.63740817790043
O          -2.59405538555020   -0.13785254666905   -1.01815171896366
H          -1.79923672331914    0.01392890652776   -1.57409817772812
H          -3.22272077654713   -0.60373526199437   -1.57285340332628
O          -0.12869906009560    0.94612926647608    1.87310378023682
H           0.78400723126697    0.55033324230364    2.07469347567861
H           0.00930159558464    1.32495177594964    0.89931603675520
O           2.09863183412833   -0.31304109292603    1.80762106446650
H           2.23965283758158   -1.14155162281949    2.27021621068321
H           1.83816519360862   -0.54674716880755    0.88539161614377
O          -1.28286547465112   -1.10532446087982    1.05358484785210
H          -0.50979181977420   -1.30820010313178    0.48879736349533
H          -0.74091389571302    0.09613475989192    1.67236911285777
H          -1.96491959664902   -0.79118677620458    0.41449192661523
