    19
        -40.91372188
S          -1.58566439449591   -0.59387057217414    0.48181910477104
O          -1.27677154204803   -1.77971909007400   -0.25840776957876
O          -0.83662044574397   -0.60042658302771    1.82560970356579
O          -1.41186077785437    0.64987732763416   -0.19008240384794
O          -3.06955102795785   -0.69383113587205    0.96871374409890
H          -3.21277969245754   -1.60557010802208    1.21272688766641
O           1.27302353428034   -1.21387506224106   -1.04666276568325
H           0.40278564559285   -1.62958750563180   -0.94255913247431
H           1.13097436515575   -0.45145912302806   -1.66178768846927
O           0.81492043051279    2.34191663527954    0.05818287186464
H           1.32116054501271    1.73421558930669    0.60861968045678
H          -0.09988817971426    2.03306091943380    0.10206818486263
O           0.56809032960985    1.00685828074571   -2.31417088888346
H           0.87320452870747    1.65953831478805   -1.65478700686154
H          -0.38134552142599    0.94748056874900   -2.16933448052067
O           1.57412187824878   -0.16098190269042    1.24472336130895
H           0.15645934151702   -0.39217795058738    1.66197517398970
H           2.19624389548461   -0.67468310499774    1.76449311870553
H           1.56349707756431   -0.57676549760107    0.30886030502961
