    19
        -40.92037960
S           0.97338633931868   -0.39135712311238   -0.24588623756653
O           0.79288547441872   -0.12848651050596    1.23849225395601
O          -0.11982133252974   -1.22452938706931   -0.71889154747975
O           1.14638607745858    0.82611601074188   -0.97202554474671
O           2.27548791087925   -1.21631692091754   -0.31188676381129
H           2.03003484846166   -2.13266404814538   -0.02799886702750
O           0.19812807386265    3.22801379411683   -0.21307486222284
H          -0.34915514557193    3.52862227102079   -0.94164867486582
H           0.70060753815759    2.46360082750896   -0.55155484428930
O           1.02359705900198   -3.45488972977372    0.12143093798127
H           1.11631219946859   -4.11539049453888   -0.56966265335682
H           0.31677457861827   -2.84433855625582   -0.16041001512648
O          -2.31299245999923    0.29528029073081   -0.45052340000942
H          -1.55495045233316   -0.27480613285738   -0.68389842137826
H          -3.05510158376651   -0.29058322719620   -0.28825395647881
O          -0.98718109996792    1.57193326800465    1.48109510004873
H          -0.58348701979886    2.34360866973887    1.01333302828625
H          -1.64339956078048    1.20016446778898    0.84958739508567
H           0.03248853506007    0.61602253073457    1.43177706299794
