    19
        -40.91277654
S           0.39569392548239   -0.69813682641153   -1.52507675786621
O          -0.93610135474315   -0.67100475412822   -0.88859099036370
O           0.71059842480832    0.53533485109675   -2.19118813038263
O           1.39303444300357   -1.18338370849216   -0.58888359256469
O           0.29520412031135   -1.81147093420424   -2.65224382559327
H          -0.08376919943813   -1.37369614874440   -3.40922747498436
O          -1.01697203775312    1.42314313344638    0.85387677381943
H          -0.25074480823594    1.95158924729353    0.54600420146852
H          -1.17052385115260    0.77749124999611    0.14246446502923
O           1.10520612988608    2.47663694750510   -0.39743391157198
H           1.10112338687831    3.31158801866611   -0.86924895279951
H           1.07926827853047    1.77729653916802   -1.08094079679981
O          -0.35534401752571   -0.16745199863765    2.76355993569542
H          -1.08973377370268   -0.20602981678991    3.37946878600302
H          -0.57639406154211    0.55919028648147    2.09590767935335
O          -0.22303992691236   -1.99994187284723    1.06664754271676
H          -0.24200730685672   -1.30155569037263    1.86805123988200
H          -0.80054267497754   -1.56738918889522    0.32953632873506
H           0.66504431390275   -1.83220933409029    0.55731748025657
