    19
        -40.92037953
S           0.61505389728328    0.41639510794413   -0.77987044270301
O           1.37211249412996    0.17051144643517    0.51291039241955
O          -0.06430960946450   -0.80666413784822   -1.17437320073616
O          -0.23596758506476    1.55848228020909   -0.67481780028394
O           1.73209969397072    0.70276987819121   -1.80482464685224
H           2.12629668676718   -0.17757103821458   -2.02876983936464
O          -1.89128798963039   -1.22915502785977    0.74275329386047
H          -2.02444317568574   -2.17652544029049    0.81403290108046
H          -1.33468709397536   -1.08559582938914   -0.04695139269085
O          -1.29497836616335    2.49424672153448    1.61566782463782
H          -2.24399277775527    2.50310470644704    1.47437429643887
H          -0.89349411006912    2.34968986751454    0.73863703982063
O           2.10635370710695   -1.82573854227988   -2.28702820301603
H           1.97335886856019   -2.09094971134390   -3.20051083255603
H           1.22623947682893   -1.79703815427849   -1.86702411080727
O          -0.28087573964588    0.16057097049865    2.35302673942287
H          -0.96839647338856   -0.40828250421359    1.93902929107704
H           0.71788506073665    0.16062630141562    1.37434154443202
H          -0.63696693455342    1.08112310551862    2.29939714581789
