    19
        -40.90719785
S          -0.14346626193945   -0.74951151373569   -1.62169451411119
O          -0.63380966345016   -1.89681504913599   -0.91738473071311
O          -0.55003515826016    0.51808397491371   -0.87220833319745
O           1.23875868241629   -0.71401492006230   -1.96506911210363
O          -0.97204044863323   -0.61085018481207   -2.95232207798504
H          -1.88026085529263   -0.82521904309028   -2.74642258274250
O          -1.83516008888102   -1.15428525915885    1.41756013006348
H          -1.43848639675714   -1.43652143693494    0.57373584302015
H          -1.50689970733942   -1.77224827740162    2.07399535647362
O          -1.17909473699460    1.38170354679191    2.24838693748283
H          -1.60433383615679    1.97947135842898    1.63086310624824
H          -1.52833092003930    0.49248823782139    2.03508681986340
O           2.82421147816253    1.06529607473307   -0.63135146079538
H           2.31419069793267    0.49208560544822   -1.23370967523044
H           3.71000253948128    0.69780633497548   -0.60989250973924
O           0.94469799562441    0.34553277969478    1.09174440369418
H           0.04974743117195    0.47266723674772    0.00406182727178
H           1.73031178540352    0.81144910758012    0.73499900926425
H           0.45999748354047    0.90288143717631    1.73962157322266
