    19
        -40.91372189
S           0.84125626203886   -1.02512420930009   -1.15798078260150
O           1.31987230776373    0.18348034796390   -1.75777374937813
O           1.62338044805918   -1.31872721812256    0.13383655221483
O          -0.56206084433936   -1.12306529636981   -0.93541298704444
O           1.28830315919179   -2.22690334508058   -2.05517699453748
H           2.16741160592042   -2.02023443225837   -2.36484671924987
O           0.26807520122126    2.02927929439297   -0.04586779390113
H           0.70381946460141    1.60363664410617   -0.80076224813433
H          -0.70310772873446    1.92581565338467   -0.20700588266090
O          -1.86466043056504   -0.64080894113074    1.50549234674390
H          -1.54938384271155   -1.11254846276126    0.72320300648795
H          -1.07261715433301   -0.33739316540439    1.96294052431656
O          -2.22871224958705    1.23193184286100   -0.45209032602039
H          -2.36259301685451    0.72911795873636    0.37443032071498
H          -2.04706574725265    0.55815156636595   -1.11462021389640
O           0.80378973352030    0.37642426289635    1.80637112966039
H           0.56847647593688    1.11776534884603    1.14020506664248
H           1.30999616732000   -0.67787679163599    0.87362490261422
H           1.49582019883202    0.72707895251826    2.37143385804183
