    19
        -40.92217282
S          -1.02438125815417    0.84778522367009   -0.37154777068017
O          -2.42502710699677    0.72179324877416   -0.08726240826058
O          -0.15517545468175    0.98389697157693    0.78391250736302
O          -0.52468107763440   -0.18848157794610   -1.28417792462416
O          -0.83787372712910    2.22054545109280   -1.17165976029518
H          -1.69406298348384    2.39762474948910   -1.55008741266901
O           2.20738253403887    1.41349992518967   -0.24912503724217
H           1.35510786806127    1.44779985991472    0.24319251674433
H           2.09787535475368    1.98733601916569   -1.00982369116151
O           0.64904980515915   -1.39121030469497    1.73420301075524
H          -0.23004199948179   -1.77224132853327    1.51580985995297
H           0.45851177721573   -0.44103975804550    1.82764593452326
O          -1.78412735703264   -1.77141740357351    0.69713811829799
H          -1.79696032444530   -2.20623023762734   -0.15884311545043
H          -2.16512490652717   -0.88850055565757    0.54526725202536
O           1.65817470373250   -1.07230056622345   -0.52768304660628
H           2.12349273838770   -0.17432137134114   -0.44427127674233
H           1.35103958015778   -1.32839659290637    0.46440797505804
H           0.73682183408641   -0.78614174268448   -0.95709573094380
