    19
        -40.91372173
S          -1.74121793915550    0.17023915090810    0.19624985913130
O          -1.25840014088754    0.27574870987813    1.65323374245607
O          -1.61006834718373    1.43715881759291   -0.45758111363376
O          -1.15575481592323   -0.95431230812595   -0.45268797246387
O          -3.26515437449926   -0.11552629618372    0.40876533869738
H          -3.66732889840743    0.71902492334373    0.63957198566373
O           1.18768842375784   -0.70695598446699   -2.18797158217313
H           1.52433074222491   -1.30495977271601   -1.49305199579170
H           0.24247984191524   -0.88472837218693   -2.21820391384277
O           1.09661157603974    1.54056183902381   -0.78261222017439
H           0.14662235688388    1.73029196433320   -0.83109336773878
H           1.25367573275321    0.80298270606340   -1.42387043331693
O           1.33964061498613   -2.07931177233419    0.17079035235710
H           1.57952148909640   -1.40161496114698    0.81252748247826
H           0.38374351888455   -1.99956158056694    0.05227959681044
O           1.24929359004095    0.45963482089208    1.51032151773509
H          -0.23180595197163    0.32120059817185    1.66829424196721
H           1.29757046575430    0.91441122958919    0.59401824004018
H           1.62855210569032    1.07571627793318    2.14102024181308
