    19
        -40.92037949
S          -0.60578800234623   -0.21710651704685    0.86431729844676
O          -1.29438403596170   -0.44631665092552   -0.39516217535685
O           0.71337703212930   -0.96853278500557    0.85449260079276
O          -0.41736714154540    1.15971065513812    1.19362736594294
O          -1.40721134146805   -0.90718957854870    1.98761237724445
H          -1.72715606914550   -1.76280854097734    1.60538799336603
O          -2.26966667900773   -2.77330702663564    0.39398434311598
H          -3.22488983118304   -2.82972027739147    0.31151087142602
H          -1.97193004825823   -2.06960034764737   -0.21257610988623
O           1.83956037430484    2.55942075798420    0.75559681698107
H           1.01238057149822    2.16009418747850    1.08348576770909
H           1.57656346777190    3.30784228629257    0.21585421963787
O           0.25759690040015    0.70823868991973   -2.25236061683355
H          -0.41329585494823    0.36697440414897   -1.62986522238231
H           0.14390459916114    0.22027196232819   -3.07042434448937
O           2.28582719077707    0.30735587678154   -0.56603256826574
H           2.34711259493259    1.16039623283898   -0.07016744831407
H           1.46433151461972   -0.46787663775500    0.25814397247424
H           1.69103474825833    0.49215332901981   -1.32742514158600
