    19
        -40.92134945
S           0.83290984346186   -0.56287923029503   -0.66613831308521
O          -0.09804119671457   -1.28918934073221    0.23357244524228
O           0.04768826421715    0.22728156687620   -1.61224946973674
O           1.77782510829107    0.22420244326257    0.08229235605145
O           1.61349787115003   -1.64668086301041   -1.45916932124516
H           0.90807596806576   -2.12041121397202   -1.94911077822558
O          -1.22537834635024    1.95786668989541   -0.15298883734562
H          -2.05467962429806    2.14559071076441   -0.59767040904068
H          -0.69278079826764    1.40236739230121   -0.78068491834687
O          -0.81067137251177   -2.23387863588411   -2.29926169715923
H          -1.09045171306566   -2.42459132561391   -1.39712896978990
H          -0.79844793813358   -1.26592405866670   -2.36637193765134
O           1.33811160895715    1.11696550168897    2.48683541115477
H           1.68099217021725    0.73679352112505    1.64003172092640
H           1.51075318839710    2.06032737177343    2.44094482722432
O          -0.98242495436031    0.36463110375208    1.81919487281789
H          -1.20850461779113    1.07911408125501    1.12460023571647
H          -0.64486789790213   -0.45696546264713    1.19324679532608
H          -0.10360556335982    0.68537976812701    2.26005599717059
