    19
        -40.92343662
S          -1.36026633006843    0.44135460873521   -0.89501089516498
O          -2.07731540974051   -0.39640871054446    0.06759604368453
O          -1.02459109943102    1.73519143978322   -0.34001667494402
O          -0.20416435454311   -0.24531530048381   -1.44909733802124
O          -2.35070944137526    0.67895235592464   -2.09693292224175
H          -3.08904604681970    1.10986086250354   -1.67775720998175
O           2.15196887545079    0.53913446476907   -0.51072277922323
H           1.31211212918098    0.33222822273030   -0.97715056810600
H           2.56562914929006    1.24804782735982   -1.00508698231568
O           1.03622674021135   -2.12658466977431   -0.01900973225620
H           1.90751630794396   -1.71500677026199   -0.02458628483446
H           0.53015876199188   -1.66044736670848   -0.71665233707395
O           0.62900102703858    1.17606921282684    1.60889056157672
H          -0.03915242940448    1.57716202727392    1.00342048957207
H           1.40205601580937    1.01561058416087    1.02826491866935
O          -0.41941643165056   -1.07789411208798    1.78637150325098
H          -1.22683107643360   -0.86472983653251    1.15642435375311
H           0.19982964782759   -1.64237129382722    1.19116542514544
H           0.05699396515669   -0.12485356684740    1.86989039814694
