    19
        -40.91792379
S           0.42790281144058   -1.35973053263493   -0.90961373874973
O           0.29935709188913   -0.46961985070328   -2.05046146869143
O           1.57948344221988   -1.03016420681114   -0.08643276326738
O          -0.79746592016220   -1.44466853642993   -0.12914545788565
O           0.67319518360857   -2.81099723347048   -1.49407209508420
H           1.37527260796263   -2.66355278754780   -2.12007176019429
O          -1.66880231753112    0.92720468786692   -1.19370835236426
H          -2.14196512873546    0.15512518858250   -0.86120543742588
H          -0.90118828402213    0.51881836519414   -1.68151347378792
O           1.85681378987474    1.48149311893025    0.31726928614932
H           1.80757058960009    0.50846903740309    0.08391113822470
H           2.44728930125601    1.53804440369973    1.07211976772376
O          -0.78485655399773   -0.28688647669223    2.16740774250829
H          -1.59110590731210   -0.56295781493781    2.60740203593191
H          -0.70478857442421   -0.85078558810499    1.34941883416134
O          -0.56541319976088    1.86742311803680    0.85105029443888
H          -1.06488617343145    1.57826680850544   -0.03846995974942
H           0.45521274178879    1.82658342123363    0.62031040142989
H          -0.70162551026319    1.07793485787953    1.49580499663123
