    19
        -40.91792388
S          -0.05124145017894    0.04795439230706   -1.68916020122501
O          -1.43000692636160    0.02764457824740   -1.22988346808370
O           0.55619188715705    1.35857404800713   -1.53639124393751
O           0.74448504098911   -1.00851655336982   -1.08207573257693
O          -0.07332499958653   -0.26205554253640   -3.24218374499951
H          -0.45485125801051    0.53168801568251   -3.60401446784667
O          -1.78395368553617    1.26196281478294    0.98374270951197
H          -2.63118455940283    0.94219579222440    1.30243229414301
H          -1.66840636214232    0.86122159304599    0.07289334825773
O           2.03424179484142    0.83109939888963    0.48742828042637
H           1.52441462651528    1.22986863922520   -0.27087346339427
H           2.30757910941388   -0.02270480118169    0.13114213174699
O          -0.18086226138791   -2.04733996320486    1.08092728215015
H           0.06792618298255   -1.73403849531208    0.16795262444924
H           0.36610457429518   -2.81419060644531    1.26147338069221
O           0.21433440093444    0.23690448576490    2.10506277598657
H           1.02719110095552    0.55719796123717    1.50376949476219
H           0.05358628820872   -0.74016834336763    1.82797952929826
H          -0.62222351368828    0.74270257600121    1.72977847063922
