    19
        -40.92079115
S          -0.12394866489845    0.96500213259416   -1.12298865677562
O          -1.22110829246324    1.85960791017933   -0.85817809815096
O           1.02305493542174    1.20759935759950   -0.24583929765142
O          -0.48939679191869   -0.44477840076135   -1.12909222688664
O           0.38154215635687    1.26463791943904   -2.59254216690207
H           0.49114628537757    2.21035212367913   -2.59886128097911
O          -0.88105504991374   -1.07317920561103    1.43179885081055
H          -1.23528651526894   -0.21220253482863    1.75695764219625
H          -0.98359649465428   -1.01546674080058    0.46019016903665
O           1.51529293411368   -2.12814110846308   -0.97031670008910
H           0.78115226624593   -1.52448655576969   -1.23426654645929
H           1.16187815726737   -3.01937424142643   -1.00298389279025
O          -1.68843283882738    1.42068232703764    1.70559059624610
H          -2.57815738038997    1.72232176694531    1.89869378122248
H          -1.50566942326060    1.68490227355625    0.77786603002303
O           1.57573544978089   -0.73982495977300    1.17911437975771
H           1.45516371867020    0.16264006473595    0.64887889728248
H           0.56780676365230   -0.93955186958974    1.46626689411642
H           1.75387878471107   -1.40074027874407    0.42971161599192
