    19
        -40.92022117
S           0.29138701801835   -0.21072470244967   -0.85493603256855
O           0.45794084674700   -1.53276656137349   -1.60362421318819
O          -1.04201469832055   -0.14385030391622   -0.30355115499187
O           1.32744183330538   -0.02875340135295    0.12891218266242
O           0.46265135899381    0.83211896091793   -1.96476893677252
H           0.85912410613057    1.67196353473940   -1.52910679992365
O           1.33207063141561    2.69640404140685   -0.49277401144094
H           1.89843444661457    2.11597767299474    0.02905539107845
H           0.50209955988698    2.78892943905431    0.02723677606486
O          -1.04318969953083    2.34924999241605    0.68789974040315
H          -1.14007029213659    1.41475205728873    0.42155088821519
H          -1.81952233140739    2.80694176811848    0.35843741261778
O           0.42204458675688   -1.88030087136629    1.86043733313006
H           0.91608284140760   -1.23081897227239    1.32825689233622
H          -0.03929757567646   -1.37669776091111    2.53468966741735
O          -1.02412137422782   -2.94426269351998   -0.11776936824678
H          -0.11041378203425   -2.23764585403377   -1.12000487259609
H          -0.50504812771435   -2.78474401145655    0.70336232746254
H          -1.74559933822287   -2.30577234428655   -0.09330320166563
