    19
        -40.92343663
S           0.55733444313914   -1.52784063347872    0.44799943606020
O          -0.85286529291062   -1.71255246028551    0.71630304806333
O           0.86487557179812   -1.66567356789205   -0.97639727420710
O           1.06964701645022   -0.27949719876544    0.99054906345009
O           1.33931891230535   -2.68195765437021    1.18182124807796
H           0.98449688133972   -3.46649294279318    0.77552295777556
O          -2.00076041098605    0.27615499495646   -0.53768302302968
H          -1.76970559081219    0.95130226185489    0.13413528690407
H          -1.77560085798677   -0.57802883489029   -0.09776722991207
O           1.35506745403596    1.84297454126918   -0.60163973078537
H           1.53551341009180    1.09155727212518    0.00077241973237
H           0.79012233469807    2.43818288044040   -0.09667145462180
O          -0.74592445589739    1.60709530368149    1.42990137340351
H          -1.13301036589578    1.59567916464686    2.30627633111038
H          -0.07996964389520    0.88459122685941    1.41404378905466
O          -0.05948091474099    0.34765058131631   -2.09880742611080
H          -0.97980423104407    0.36933883511968   -1.55561376610743
H           0.53586666378002    1.05952860041455   -1.65723471351276
H           0.36487907652263   -0.55201236020951   -1.77551031534212
