    19
        -40.91409169
S          -0.16668893134401   -1.62883020017927   -0.44400267120665
O           0.37173416278399   -1.91035126280342    0.87803427427515
O          -1.53265591595742   -1.15032654444765   -0.39224333056522
O           0.70912980835827   -0.75604340876396   -1.21894612550712
O          -0.18574090426076   -3.00569288268380   -1.22397999837382
H          -0.77343808870202   -3.52566875414976   -0.68572232654960
O          -1.95023413035601    1.16563802642092   -1.51254236706185
H          -1.77774227186271    0.25287717501871   -1.17637447925999
H          -2.89993192270435    1.23464467179716   -1.62342558226438
O          -0.58558455920705    2.39930192748692    0.33543276584914
H          -1.12723498706129    2.05732836095297   -0.42697894288957
H          -0.94945719093635    1.99307087732139    1.12599236136750
O           1.71269378297211   -0.08492105131041    2.08675892394474
H           1.15376019558283   -0.82405216544424    1.71147841084492
H           2.53077623763372   -0.49456714859972    2.37465827775482
O           1.62103539432601    1.23427887136826   -0.06625089481556
H           1.78401623520603    0.79653081031778    0.85291261392630
H           1.29152014214354    0.42218557226543   -0.65465008960457
H           0.77404294337630    1.82459712542846    0.05984920013723
