    19
        -40.91865343
S          -0.21508707149351    0.97835443754321   -0.00660647182386
O           0.93698289852020    0.97076004161682   -0.87754554423965
O          -1.20433113728837   -0.07373680016496   -0.51251606241166
O           0.04455287044377    0.77782886788799    1.38365522323571
O          -0.95029923352229    2.32987817319104   -0.18965685531390
H          -0.87180695185305    2.57388942454758   -1.14779036932912
O           0.24349363913468   -2.97563665822809    0.92046131468607
H           0.14428097924748   -3.42083842961110    0.07744224439240
H           0.98899352487460   -2.34498155635277    0.81464470478241
O           2.07409481911339   -1.01907120634422    0.60925157855561
H           1.96921499829709   -0.52654728570716    1.42869891958898
H           1.84247479732220   -0.38834710743204   -0.08945509642759
O          -0.18069334780532    2.59602639222584   -2.66094148047597
H           0.41560495622265    1.89790285264353   -2.33485934133600
H           0.36673418100081    3.35917226487277   -2.86264559499994
O          -1.71814132444071   -1.33561019979838    1.57558355380694
H          -1.25940377741580   -0.69256494141385    2.13173913464757
H          -1.55194718641239   -0.62897712701607    0.30344963241022
H          -1.07471763395373   -2.07750113243680    1.43709050026759
