    19
        -40.92136400
S           0.92130404623520   -0.40908621957255    0.95195067513466
O           0.26998698611601   -1.37415476978622    0.04881990193774
O           2.34118246559353   -0.31452524794696    0.71970428944387
O           0.22931776933084    0.86007957862505    0.93376555025785
O           0.72551493053427   -1.01138298207302    2.40803908957835
H           1.49949728761820   -1.55058515618482    2.54386227251767
O           1.90417430582395    1.26010189042371   -1.34766628559388
H           1.64752179082522    2.07041881925163   -0.89870233782875
H           2.24793529991140    0.66991890338554   -0.63913580258404
O          -1.83422399623669    1.14922056228191   -0.65345602383205
H          -2.34697593733897    0.40754951796715   -0.26230761484268
H          -1.14429731483065    1.31436825290892    0.02950182376391
O          -2.29111470227902   -1.04742770505056    0.78299502427580
H          -2.28798707028006   -0.91587432446551    1.73269303468998
H          -1.39001119771930   -1.33895698208052    0.54796921733217
O          -0.17096484734060   -0.05452386313822   -2.03941651989205
H           0.66655559602457    0.52897000108370   -1.95981091712780
H          -0.00303670251601   -0.76392814153362   -1.31645392945104
H          -0.98437872947087    0.51981787589897   -1.58235143775654
