    19
        -40.92115649
S          -0.49701478767093   -0.26619754053410    0.89844440565911
O          -0.98464417231603    1.10002129700194    1.02458455577692
O          -0.88153105495754   -0.81021254202755   -0.42769983243285
O           0.93028764319914   -0.37043411474082    1.10276590720402
O          -1.20716694810068   -1.15309677755009    1.95758712970442
H          -2.16125428041482   -1.00636661873526    1.77072761590812
O          -3.35365749789152   -0.18217149534345    0.80172257323050
H          -3.14637150882482   -0.55388489494914   -0.06199662103393
H          -2.81663567590466    0.62259552226017    0.87324105542972
O           0.90988260281845    2.09132348118107   -0.49050710550083
H           0.12452763279378    1.89090087523203    0.07263168108087
H           1.65730660379872    2.06103496701059    0.11225314773006
O           2.58525783793172   -1.29984096080065   -0.68991213363818
H           3.47287416313535   -1.01032099865494   -0.47055507957757
H           2.02187001155387   -1.11505714085481    0.09967727800239
O           0.82115917951013    0.01655813559199   -1.98031756280815
H          -0.00467063773944   -0.41308279754066   -1.39651477351202
H           0.91507895982850    0.93495281537538   -1.53549747665707
H           1.61470193924178   -0.53672120193848   -1.66063476456150
