    19
        -40.92217265
S          -1.00497718849999    0.90258309322012    0.28905988153727
O          -1.40277556002040    2.05319626639497   -0.47024217627935
O          -1.15024660109424   -0.37757821640910   -0.38117397905556
O           0.33245161166027    1.03540353506775    0.88072478129566
O          -1.99757503224293    0.81022784015553    1.54008602060528
H          -2.32793429504696    1.69682333451959    1.65089201518175
O          -0.52788405675618   -2.13147061402750    1.45503597807642
H          -0.95553343072556   -1.58464602733347    0.75645799112261
H          -0.89286983640047   -1.82952008927663    2.28906356163417
O           1.03067873921124   -1.03134655717123   -1.79748165263449
H           1.15745248921387   -0.08596432771947   -2.03438815246720
H           0.07858690172815   -1.08161897959498   -1.60002015870876
O           0.87833321758236    1.63540119845354   -1.83369027906808
H          -0.01012175708383    1.86814431524898   -1.51046369911646
H           1.49006832708808    2.08651722818210   -1.24705779110366
O           1.63937714419973   -1.04923352140455    0.62398741152697
H           1.19572135051858   -0.10699522795813    0.79719435712248
H           0.94589666199191   -1.67034857115377    1.02763925199015
H           1.52135131463717   -1.13957470924804   -0.43562336174085
