    19
        -40.91941535
S           0.13382934345412    1.59760165476657    0.22939432206217
O          -1.19844440276972    1.51139781247812   -0.38069019942686
O           0.14548733079563    0.97147993157655    1.53919745291008
O           1.16889668036130    1.09730424761475   -0.64723291105778
O           0.41689848332836    3.13214300044896    0.44109001987023
H          -0.26495644480571    3.39330773173465    1.05220170072530
O           1.66332453165591   -1.28959424511747    0.95254626950805
H           1.43330031921731   -0.38190054762746    1.20338173527014
H           2.07616738716409   -1.22780068924594    0.08872043336169
O          -1.69772365522236   -0.88266788256077   -0.77360166206612
H          -1.62641502157552    0.15916848089507   -0.64494451563881
H          -1.46741255143322   -1.25151934347333    0.20460538653357
O          -0.94361348851899   -1.46459566779769    1.52889760670396
H          -0.05429806928036   -1.85247658419895    1.41203726821395
H          -0.73886048657590   -0.54296746734428    1.79418018727827
O           0.49983998996616   -0.96904759049262   -2.06542302965005
H          -0.88889427549612   -1.08853943058414   -1.36081617243482
H           0.49712813366459   -0.73467732625181   -2.99529083862805
H           0.84574620605814   -0.17661607481160   -1.57825305353775
