    19
        -40.92158998
S          -0.92019928523519    0.30982596420546    1.11205680864066
O          -0.94503151586553    0.89022483023707   -0.22216289865713
O          -1.99299070060554   -0.60256756886774    1.40074283916726
O           0.39922356340480   -0.26860116251841    1.39896613984700
O          -1.08220180718922    1.54073731495078    2.09703051863340
H          -1.41868888196282    1.15407959203801    2.89971880432311
O          -0.75984561084880   -2.55326226985250    0.07189685257244
H          -0.06222518498884   -2.76170831750423    0.69766164747683
H          -1.36460550825208   -1.95258121268250    0.54976584446668
O           0.04528961085855   -0.95729371277734   -1.87336240728002
H          -0.53485980508365   -0.24291080558874   -1.54378275860541
H          -0.24588385918422   -1.74449926550016   -1.35492579241172
O           1.14251284225398    2.33441979536114   -0.86315085174184
H           0.27137111316591    1.98381939763655   -0.56141338430818
H           0.99767836071623    2.72342284786006   -1.72804185876173
O           1.94390693295673   -0.07059386378563   -0.52719658508867
H           1.26209077528045   -0.52556897149370   -1.21661597367793
H           1.85992659917761    0.92486190226381   -0.71002721153163
H           1.40453234017604   -0.18180448468376    0.37284027669858
