    19
        -40.91779612
S           0.59203027344273   -0.39807645944636    1.01915157159178
O           1.35856321016882   -0.91557950432734   -0.08051444453349
O           0.03735537245495    0.97915000077295    0.63651891082629
O          -0.46690826837866   -1.24877387064928    1.47701330688464
O           1.51825751651658   -0.07489869733313    2.21348366262571
H           2.11156645356524    0.63586387753997    1.87651286608832
O          -2.58452736097358   -1.46384869811817   -0.09738865084350
H          -1.82144177072461   -1.53675696504941    0.51541885922891
H          -3.36857628968829   -1.44505694196516    0.45465757614913
O           0.30485072157542   -0.70514811757687   -2.50423535568079
H           0.84271557161712   -0.79744793512500   -1.68897945860848
H           0.06680711145659   -1.59687838463871   -2.76627604385876
O           2.49438145879417    2.03991495874680    1.02841452907583
H           2.49779440998919    2.85312947218240    1.53984870853499
H           1.63200706155270    1.98219284157350    0.58908665703009
O          -1.52090147629317    0.65389450517802   -1.22254037531986
H          -2.08182363635420   -0.09531796712122   -0.88885224861121
H          -0.71184023799936    0.89358813294242   -0.21748779697274
H          -0.90031012072160    0.24004972241053   -1.88383228360463
