    19
        -40.91941550
S           0.23608999880204   -0.17487556395727    1.59092783103695
O           1.52704885098195   -0.33296115476008    0.94583655587788
O          -0.21521857921527    1.22018823523767    1.52496906745104
O          -0.76217611455264   -1.09547462046583    1.09491687346690
O           0.43373155586204   -0.49624954905150    3.11979887244982
H           1.12151644502630    0.10916197266330    3.37866808271066
O          -0.58365263606733    1.78767485627927   -0.85800699123199
H          -0.44833330243791    1.69133619810869    0.18066180668173
H           0.35466922027523    1.44602076182501   -1.24446394132494
O           1.60362537905958    0.77077502788587   -1.48205370037007
H           1.85748763943780    0.52862391048896   -0.56623437038259
H           1.37810095078486   -0.09534596730015   -1.87415570264803
O           0.73753345959637   -1.75590032330735   -1.31328979471136
H          -0.16556198746238   -2.07041884188767   -1.23670097147474
H           1.02915244289643   -1.56137615180653   -0.40941319902063
O          -2.12539980982439   -0.24197108548826   -0.94077821657764
H          -1.26541688105463    1.05566629332992   -1.06048341423025
H          -1.66879044161700   -0.65172012092406   -0.16074633749400
H          -3.04440619048903   -0.13315387686977   -0.68945246021299
