    19
        -40.92174068
S           0.20633941048836   -0.51579891471855   -0.70239414515830
O           0.15646184855795    0.71413444634855   -1.46428689596905
O           1.20918566445835   -0.38895843042112    0.42966519095749
O          -1.06239390611289   -0.96067792836356   -0.20513218655439
O           0.80910502919423   -1.62349140299057   -1.59325168547659
H           1.52524145197616   -1.18492492656290   -2.12187335259929
O           2.28863147252886    0.06675977782826   -2.89387363091273
H           2.14573721953962    0.13612734806852   -3.84127134472755
H           1.63690700878225    0.65181252977332   -2.46511953027291
O          -1.40621494053998    1.91118074868283    0.39376841012938
H          -0.87456241206961    1.68377411511243   -0.38678577166510
H          -2.17820919164869    1.34004829499579    0.36070739391636
O          -1.58679609369168   -1.18432213543448    2.42519976677520
H          -1.54298961826185   -1.19603760580301    1.45023393722780
H          -1.35272958632999   -2.06643014249677    2.71840376419726
O           0.12883442598935    0.84232571770042    2.27937901228705
H           0.81815045339674    0.16583254908974    1.27922222753177
H          -0.42340268054520    1.45832622954191    1.74240096752851
H          -0.49729555570885    0.15031973965075    2.59500788278327
