    19
        -40.91241693
S           0.75057952263867   -0.15773670205507   -1.26076592839597
O           1.26266394576119   -0.84076502959125   -0.07163326618897
O          -0.51033831809654   -0.72502225696243   -1.70669336385091
O           0.69372642114749    1.27518715355154   -1.06995456152097
O           1.81018830286340   -0.41900145409238   -2.40129350054021
H           1.82936830623052   -1.36712168599475   -2.50066301601937
O           1.13478414084515    2.05631149069594    1.37049069580430
H           2.07938946692389    2.02909487740031    1.53540995957025
H           1.01851747489656    1.89548537290958    0.39809186340607
O          -1.86826014062803    0.67608048411911    0.08856666368906
H          -1.63936008463890    1.58875427116794   -0.10902764069353
H          -1.53679302761021    0.15436979367901   -0.67376493826753
O          -1.35066264066820   -2.26081859355497    0.40104698917840
H          -2.30702558655072   -2.24323371693321    0.33461759020549
H          -1.01269980951892   -1.90816830369665   -0.43471163576475
O          -0.14523338195968   -0.07721525013203    1.82376944453945
H           0.35537572077307    0.82406701180741    1.85459445619458
H          -0.99729338092414    0.11508232742379    1.28755878625127
H           0.43307305851570   -0.61534977974176    1.13436141240362
