    19
        -40.91893421
S           0.52188094333871    1.59282511236111   -0.45055180943995
O           1.66680835441796    1.40074515566032   -1.30418678170842
O          -0.72731180839721    1.07242112769816   -0.97077448565729
O           0.76470916501003    1.11283442813799    0.91846142752385
O           0.31854042559345    3.16157632586635   -0.31877633767573
H           1.20889338588661    3.49641813505694   -0.36548199341284
O           0.83972236457099   -2.48594596545772    0.50529551707121
H           1.75513744946558   -2.55192470528864    0.78414495490470
H           0.85303244613180   -2.03843771295981   -0.38345565030895
O           0.86597296375168   -1.08084846196062   -1.70815402590604
H          -0.02642224529730   -0.83030545725815   -1.96535012901915
H           1.34114524019102   -0.22839923101943   -1.63200888512545
O          -2.49981110805507   -0.25428913063447    0.37468575356088
H          -3.16199845758599    0.36138468857500    0.69408512728995
H          -1.91015238340134    0.26145626267600   -0.23408077951985
O          -0.49245629389423   -0.79462047155813    1.83136534690110
H          -1.38754169855751   -0.68923023963446    1.34312038461505
H           0.01078662879581   -1.57218090678999    1.36699764641442
H           0.05906461802716    0.06652101652484    1.51466470949813
