    19
        -40.91893433
S           0.47582732772654    1.58912585722367    0.51517346015335
O           1.50408237941397    0.61070166686957    0.12929326849719
O           0.13482409996988    2.47399125114450   -0.56977800174896
O          -0.64998316261116    0.93679889491466    1.15444665586233
O           1.14918468146080    2.49031156333056    1.63520663015915
H           1.59842279702804    3.16017892048069    1.12865566956342
O          -0.76749820847987   -1.55424219052128    1.85486589935735
H          -0.51348316629704   -1.62236842960520    2.77699751457944
H          -0.83068048004981   -0.58461200881829    1.65408178514403
O          -1.51169203978894    0.61718789052194   -1.46770580584761
H          -1.97192992158711    0.51394482940356   -0.62935871492317
H          -0.91981763361101    1.38318602387021   -1.32283950011178
O          -0.26564961900502   -1.59316853337523   -2.13093827885253
H          -0.81221089227030   -0.78445717411734   -1.93781128583003
H           0.29489360590107   -1.36435847911865   -2.87501581713449
O           0.99955759289706   -1.79582160365310    0.04895359855456
H           1.30043052713079   -0.77016745704316    0.10610505888218
H           0.29016637831092   -1.87064159124552    0.78513950064159
H           0.49555573391664   -1.83558943034036   -0.85547162686405
