    19
        -40.92008983
S          -0.46020035770567   -0.31104884761684    0.58943013863430
O          -0.65627373509044   -0.54204420370445   -0.82608668303404
O           0.65442248640366    0.54441631912021    0.88812105707991
O          -1.74455426572116    0.26268563006187    1.19442059911975
O          -0.30353217448619   -1.65421971008176    1.30781054855858
H           0.70854389528394   -1.83618769036569    1.36508985861069
O           1.58753284326792   -1.91204263850908   -1.45651441990339
H           0.77917435528235   -1.37338257276930   -1.37840168532194
H           1.32912796794916   -2.72959267694101   -1.88712996715257
O           2.20836627955332   -1.74548247350356    1.13593620293510
H           2.22372645725741   -1.91014511679458    0.16680135500878
H           2.28768154459030   -0.78804648233714    1.23473077365155
O          -1.30327872425681    1.94093704754861   -1.67846461384811
H          -1.01801731830322    1.02330651477788   -1.51650949139800
H          -2.13527401647529    1.88746652455124   -2.15329969870133
O          -1.11849099907385    2.68290777531667    0.88078267045917
H          -0.18445101827547    2.50230919626149    1.04715321735097
H          -1.21618022438697    2.67117219774769   -0.09744026074815
H          -1.63832300581379    1.28699119723686    1.18357040869782
