    19
        -40.91596562
S           1.13037116018773   -0.67733562597933   -1.13639508302094
O           0.73935844599630   -1.91774883502499   -0.51028086079206
O           0.26350303851674   -0.27932294494159   -2.22916302308317
O           1.31715481360474    0.41229808521759   -0.16899663877325
O           2.57464531574099   -0.90800712571921   -1.74867304095632
H           2.46355988320412   -1.71709474231369   -2.23789462923520
O           0.83516671381049   -1.19521915421080    2.00500235290224
H           1.45814240280854   -0.49352455537513    1.78455176086470
H           0.73302379318177   -1.67526141219017    1.15360508776608
O          -1.36979914298000    0.14904328058388    2.30614782796526
H          -1.37204684296222    0.49576878109533    3.20018872417131
H          -0.58548186455272   -0.47352283028035    2.24294436690640
O          -1.94410013184482    0.91266533730652   -1.67339923261510
H          -1.16627820803513    0.35575493780426   -1.95688162523785
H          -2.08933775248680    1.54394731940388   -2.38139727979105
O          -0.74015110152340    1.67841695808762    0.40228707629752
H          -1.08343690412306    1.11142223377370    1.20505312673604
H           0.17948565156225    1.22956737323818    0.15317253687134
H          -1.34377926986971    1.44815291967586   -0.40987143662443
