    19
        -40.92011123
S          -0.64765279378449    0.67895190772030    0.54352606056736
O          -0.73029519734776   -0.72337305481995    0.96108685432066
O           0.76888645168397    1.05803716665328    0.36100515804837
O          -1.42120064537058    0.96392073210680   -0.63772530388998
O          -1.19985526126195    1.55305547505930    1.70216101343365
H          -0.80863857532470    1.15934743419804    2.51176776191481
O           1.63529566535996   -0.04231750542600   -1.64303052146994
H           1.34887823232398    0.50776711138445   -0.73103213733504
H           0.95208399140698    0.29986772353740   -2.33005915271166
O          -0.27649320919237   -0.15526879810214    3.47934258055982
H          -0.95445729407173   -0.51921205600481    4.05337817829855
H          -0.35008453427492   -0.62560192216130    2.62401804268400
O          -0.30949076462086    0.87116316124911   -2.99222093027457
H          -0.27055333242102    1.77773351282031   -3.30408231479644
H          -0.87308383827147    0.88528803767642   -2.17819873164571
O           0.62441112284603   -2.19479004575124   -0.72419959320412
H           1.15857845134290   -2.78122604474726   -0.18439721549529
H           0.01396662718330   -1.72373110324330   -0.10413850122583
H           1.33970490379439   -0.98961172214899   -1.40720125778024
