    19
        -40.91898903
S          -0.67104669522314    0.03294508963731    0.87238424619334
O          -0.22591241456437   -1.28092283951109    0.38662803878986
O           0.45428660571724    0.92437424444247    1.06150008071062
O          -1.67076104778279    0.60681087180490   -0.03141136854111
O          -1.39296337378497   -0.18978723967916    2.23061838023179
H          -0.78995770618122   -0.78424020086209    2.72505010929402
O           0.35379604438724   -2.06760037060518    2.83384403225083
H          -0.00740070858687   -2.93925001925322    3.01169726613316
H           0.37466335954966   -1.96489323205826    1.86216150827321
O           0.51264212199494   -0.99220684431431   -2.08333649697180
H           0.30693872832152   -1.16170624569172   -1.12460336459705
H           0.10389155588964   -1.70989288466102   -2.57188442428351
O           1.22359638553554    2.51762805670471   -0.81658533374399
H           2.13186183744638    2.26439273848548   -0.99659701901774
H           0.96169674624217    2.02635590677311    0.00869757608534
O          -0.56478103226488    1.30853448711344   -2.11540866118647
H          -0.10830160625495    0.40592653563049   -2.28220325618443
H          -1.16478520842986    1.08177242639960   -1.25629165373096
H           0.17253639785451    1.92175951102406   -1.71425964773742
