    19
        -40.92011119
S          -0.25840572459552   -1.03126526285380    0.21355280303074
O           1.05201856100791   -0.83806881662086   -0.41349374967875
O          -0.44937953813749   -0.02643394719168    1.28004795634586
O          -1.34639323426107   -1.00491682621500   -0.73010351954189
O          -0.25446404568553   -2.42228681059358    0.90381640370183
H           0.61968377004917   -2.47129143879906    1.34764595462457
O           2.30898028975618   -2.18316808745979    1.45220533030674
H           2.10271330256674   -1.56920268434918    0.71824172808436
H           2.84985841149461   -2.88428223126656    1.08145297448211
O          -2.62188488165753    1.21666767595658   -1.20533998859380
H          -3.49852009397817    1.10621464250565   -0.83111511741089
H          -2.19452440955463    0.32411494841403   -1.17053781288142
O          -0.77889779703303    2.16872638945091    0.25534518129446
H          -1.57921936826312    1.95132386470291   -0.35139108695056
H          -0.64994318724513    1.23089235141684    0.82121122499653
O           1.27919798663235    1.65831116550756   -1.15990445616046
H           1.23193890025515    0.68316792921978   -0.99907257183471
H           0.04085242167088    2.15145573913494   -0.35133401469414
H           2.14638865697547    1.94004139904037   -0.86122724912270
