    19
        -40.92011118
S           0.68332514997176    0.84192283436693    0.01579724867231
O          -0.72203446261016    1.08815824164372   -0.36874746403882
O           0.72377241548081   -0.01142188387619    1.20654354784662
O           1.44140374716757    0.30980347426823   -1.08741312800010
O           1.29154928029179    2.21890504804594    0.39710269854810
H           0.90362552151067    2.42144713024443    1.27574482418724
O           0.27730044528541   -1.16203575641756   -2.89478170489317
H           0.85825688695653   -0.67444679753322   -2.25819947608613
H           0.26503385657511   -0.63776836305031   -3.69834987074057
O           0.34511329724063    2.00021954297198    2.84362509395578
H           1.02170775505639    2.03707089492946    3.52364275689858
H           0.38328532927307    1.10156151176031    2.45742823093859
O          -1.67042970248359   -0.97272932726723   -1.28013253678822
H          -1.34486058079810    0.00860399934527   -0.89627210267411
H          -0.98992275510782   -1.15297893252398   -2.02868863163850
O          -0.71973249456277   -2.14877164270404    0.77225760716943
H          -1.40464468976506   -1.58743547256360   -0.51082096519835
H          -0.07937580730150   -1.42251435774852    0.97594528354810
H          -1.26337319218178   -2.25759014389370    1.55531859829402
