    19
        -40.92343661
S          -1.15274341730501    1.23109957562019    0.04166598674186
O          -1.85934433545474    0.33098748240468    0.95438594622350
O          -0.06200449467796    1.91905903413462    0.69873559104998
O          -0.73144814676952    0.54596482929873   -1.17004708873560
O          -2.20176975759153    2.31739047459545   -0.40719804928132
H          -2.45223985053605    2.71998117146721    0.41843666994883
O          -0.23427397126072   -2.07529531912858   -1.11186862254006
H          -0.62341522341445   -1.19911642414085   -1.31421509862034
H           0.67582326840084   -2.02327904748691   -1.42412067023380
O           1.59034618193751   -0.00024623487001    1.35609882591168
H           1.95838098679786   -0.11463943888438    0.45494564473536
H           1.06615496122338    0.83326131761914    1.29036919402456
O           1.85583130159794   -0.03055533504234   -1.31730753620901
H           2.39485837077298    0.64525417761114   -1.73051699934576
H           0.92965952675612    0.29597822957745   -1.35391961699666
O          -0.33516115568744   -1.58222088941601    1.38308713549101
H           0.55426752566358   -0.99876456991824    1.48683905863050
H          -1.07382253272703   -0.84494945490527    1.31276303822848
H          -0.29909923772503   -1.96990957854002    0.43186659097839
