    19
        -40.92343627
S          -1.27753627974441   -0.98520863571204   -0.49299041236836
O          -1.30105529555687   -1.27459798400758    0.92505076077988
O          -1.93668206483404    0.28458566151374   -0.80162277377858
O           0.06324140359697   -1.04530601173548   -1.05321916020090
O          -2.11116508044084   -2.10555290548147   -1.22240539787374
H          -2.97113032914509   -2.01978180958299   -0.82288401248047
O           0.13103091091456    0.64139497635546    1.98413089342516
H           0.99660349625299    0.25822736971665    1.73020016676465
H          -0.51063460791768   -0.08433977902382    1.79549755155396
O           1.44477724574645    1.20594653436610   -1.43316044490963
H           2.20326349288945    0.96406046522588   -0.89031293375692
H           0.95904665933758    0.36762940269455   -1.57973704248841
O           2.04368640819908   -0.72793271572202    0.68621175100757
H           2.36997296653694   -1.54036191771405    1.07570653395466
H           1.34189743381135   -0.99040015521358    0.05034489082004
O          -0.44112462877029    2.08305956476705    0.03369926968197
H          -0.18985077091575    1.60291020752018    0.95521786013727
H           0.36085360828991    1.91957753409602   -0.58799218021093
H          -1.17519459824768    1.44609020790669   -0.35173530005738
