    19
        -40.91618757
S          -0.36672627680986    0.70703930559298    0.30872160350010
O           0.30219288204142   -0.52306808634207    0.66900979415088
O          -0.84664538563203    0.73888635944585   -1.04130630805720
O          -1.50708583602866    0.96355628794863    1.30287508842399
O           0.54806168122653    1.90597280472849    0.59365329494951
H           1.34164373069946    1.92567518018597   -0.03902733458938
O          -2.63476014777273   -1.23962218161669   -1.18303359688608
H          -3.43115360387932   -0.88538119222871   -1.58359353171673
H          -1.94567454977214   -0.55415574112923   -1.29257212183176
O           2.64113685444052    1.78359115967264   -0.86503686639431
H           3.39328345201314    2.15833923000204   -0.40000832076389
H           2.76607192966469    0.80636588178329   -0.87482042817152
O           2.68838504322922   -0.84136369321706   -0.47183054269336
H           1.78098866265030   -0.84612094864971   -0.10429442602301
H           3.22490774997360   -1.36120574490108    0.12974544581581
O          -2.21668776316911   -1.46105275603638    1.43177462636631
H          -1.90896078301064    0.04372464951685    1.49262233147902
H          -2.52440777428963   -1.54685130001243    0.49937277433949
H          -1.30456984557185   -1.77432921474594    1.42774851810547
