    19
        -40.92174078
S          -0.05475585183786   -0.87080997873670    0.20431907069726
O          -1.05419581325009   -0.92788395280644   -0.84143370298708
O           1.25067173114855   -0.32997262040643   -0.34919299997804
O          -0.45223723816894   -0.13574477601551    1.36908203532813
O           0.30337074078184   -2.31322167716868    0.62321152822902
H           0.30542462461333   -2.84485324677547   -0.21438776703771
O          -0.14455759775467   -3.23820258346891   -1.76079232332886
H          -0.82811491235626   -3.90688002807622   -1.85199389550243
H          -0.59015025111102   -2.37130942281904   -1.78933792025671
O           0.82635656799413    2.08978214021941    2.17857704404728
H           0.28855148280494    1.28670392666820    2.04241918745239
H           1.53016714217868    1.84640472464575    2.78225159393090
O          -1.54400620196180    1.72710128198217   -0.64585851028267
H          -1.85574487898569    1.77644756948746    0.26165569853303
H          -1.54041074742298    0.78281197339481   -0.87388310089234
O           1.07490046725636    2.13151859519282   -0.46859548199647
H           0.11858827527805    2.19900612976284   -0.70024269581385
H           1.11917811481332    2.34684948052209    0.49168005318259
H           1.24696436600164    0.75225246437118   -0.45747782331665
