    19
        -40.91241711
S          -0.82111572822446    0.35269463125103   -1.17382538706311
O          -1.30309135240390   -0.71894441069065   -0.30111019787990
O          -0.85460436707515    1.64454579354248   -0.50970875695759
O           0.47224605423832    0.03832904755073   -1.74080866723255
O          -1.83725388510837    0.42099173176069   -2.37990896283956
H          -2.67692149393453    0.62671527082172   -1.97764150641557
O           1.44345370871826    1.16405802876781    0.72093801738658
H           2.05910266739739    0.99350769982520    0.00239147135123
H           0.64013292979680    1.53137378640926    0.29292144674633
O          -1.19848841492800    1.03788770705896    2.13908410996049
H          -0.77430606715486    1.76266546130069    2.60176012178747
H          -1.28094189452858    1.31497747859721    1.21516998497118
O           1.60958559333838   -2.06712746021697   -0.72574884945669
H           1.25661322906474   -1.29371008646601   -1.23821196766315
H           1.20466305884928   -2.84839184706599   -1.10771830300373
O           0.50590441163289   -1.13212239857919    1.34788844596354
H           0.90625788530736   -0.18832512958872    1.34541096170725
H          -0.40282634174513   -0.98824837036700    0.84691845836899
H           1.05159002675856   -1.65087693391114    0.64219960026843
