    19
        -40.92174069
S          -0.33571147279815    0.76882041732142    0.31436012370070
O          -0.87052065143325    0.22113736065893   -0.99602281435391
O          -0.81161657599977   -0.03358024955289    1.42147722915885
O           1.08880817630948    0.91770067628764    0.25498604838805
O          -0.98007350387085    2.16895171132214    0.40805275782364
H          -1.91085710180462    2.01794992886218    0.71659004897676
O           2.55760397264408    0.00613983217316   -1.80805995926045
H           2.63234355812302    0.69534127026806   -2.47020614876378
H           2.16983758752009    0.42424507932734   -1.01598522070785
O          -3.13657139705212    1.22998142940963    1.50674944437174
H          -3.36105806010215    1.55439198391300    2.38256535985543
H          -2.50673859181943    0.49565215742394    1.62905630792460
O           1.03274951783359   -1.95552749843288    0.94291168398367
H           1.84100530257810   -1.45449949061444    1.08004706283829
H           0.31538150223090   -1.40298002766535    1.29482790417051
O           0.52891412897029   -1.70603408419172   -1.65252382650647
H           1.35321438772907   -1.23264039405237   -1.91134618929830
H           0.71409395113781   -2.06477416431237   -0.75256543491621
H          -0.32080475013771   -0.65027592817950   -1.34491434736345
