    19
        -40.92174071
S           0.76675908486328   -0.46063452809530    0.06954486281314
O           0.69630391954769    0.70484512149152   -0.90001658311091
O           0.79386957547662    0.02594725390240    1.43276699579477
O          -0.27313844672593   -1.40844561156127   -0.20459405369669
O           2.13067709356717   -1.11053583125132   -0.24914642781754
H           2.81065576792397   -0.54116169160029    0.19541430452356
O           3.39677868711952    0.50332411801480    1.34207312902051
H           2.47303160870021    0.60589665683646    1.63701145629825
H           3.88169457986930    0.11147611627728    2.07282870405005
O          -2.23240796604344   -0.93143238662838   -1.98725890451166
H          -1.57764262703654   -1.26958325636904   -1.34729810983632
H          -1.95575315021471   -1.24411731193785   -2.85014076295310
O          -1.87845610356226    0.45616073290897    1.43133796461788
H          -2.19513676084413   -0.43978120208254    1.28933937008955
H          -0.93665476678055    0.37222064871845    1.65418657250507
O          -1.64933720665370    1.47265754358814   -1.01160365814763
H          -1.90119427210434    1.30994386734875   -0.07197573986080
H          -0.30494992300540    1.12013166359849   -0.98883306857915
H          -2.04509910410580    0.72308809684915   -1.51363604119619
