    19
        -40.92174074
S           0.01422360318390   -0.20112640476384   -0.87385054131487
O          -0.51060909649365    1.13449334421731   -1.06522006224376
O           1.32681156175360   -0.14299738737401   -0.11428345041558
O          -0.89369872999813   -1.11383654834049   -0.24323056288924
O           0.42083163813300   -0.77257513793270   -2.24947032449806
H           0.81585423608762   -0.01288383164108   -2.75062710910577
O           1.03404624508594    1.57614922574694   -3.16974415210107
H           0.49589024269764    1.79605941416235   -2.38690832157785
H           0.54943794618676    1.88757646369063   -3.93843815378448
O          -1.45583516997691    1.22648218055105    1.46945933407316
H          -2.08144283105881    0.49766688402979    1.44392899604426
H          -1.21796827528700    1.40379319518569    0.54443256988041
O          -0.37675324720455   -2.25434481575582    2.13912459777681
H          -0.69014831375734   -1.96001389218574    1.26285059127504
H           0.08392404852884   -3.08320607544438    1.99870729696519
O           0.81465813512343    0.11878490986492    2.28850999508689
H           1.18960516562022   -0.00315629671525    0.95547872478823
H           0.01194843944339    0.68593136464081    2.20583645913411
H           0.46922440193340   -0.78279659192854    2.48344412289628
