    19
        -40.92037972
S           0.13630659808961    1.06298889792149   -0.11528153694825
O           1.35745568254967    0.36155297542958    0.45212166252174
O          -0.26815729694931    0.39758079355534   -1.34279543390194
O          -0.89762163774791    1.17955560431368    0.86291332200884
O           0.66103153334880    2.46843219014439   -0.47577265035812
H           1.17505185664587    2.35840486750500   -1.31490392109550
O          -1.24181467200869   -0.47915241730509    2.95465760332666
H          -2.13549554750163   -0.81753447185606    2.86784058533423
H          -1.17361620270291    0.26443639215270    2.32724806649560
O           1.52668001806727    1.68123483132217   -2.79899235050439
H           0.89587127935771    0.98441240094039   -2.53750416015510
H           1.14518152031338    2.13671773068598   -3.55355861924365
O          -1.05608404677355   -2.04778311064717   -0.57377202914770
H          -0.89034351776853   -2.65060604223453   -1.30149054069099
H          -0.89606516320063   -1.14742248576528   -0.91688316175114
O           0.58500410971842   -1.73825377434256    1.50730123279007
H           1.10292824843713   -0.56820082341969    0.94242586969286
H          -0.00782312985529   -1.39128807093328    2.21827047908014
H          -0.01848964203002   -2.05507546745455    0.79817556252693
