    19
        -40.91285627
S           1.17985337755699    0.19523395322855    1.22393480119389
O          -0.02688174406277    0.92108767099824    1.64050598481699
O           0.82245163624800   -1.07926154587287    0.61051732882270
O           2.09062657822541    1.00115760078739    0.46019710084141
O           1.93066949997326   -0.20192980871352    2.56498977815647
H           2.39024671354466    0.58586737655637    2.84163768598645
O          -2.57808989413964   -0.56299280173222   -0.88684531646707
H          -3.07270347167120   -1.29118030363992   -1.26786951275992
H          -1.69901366106082   -0.52169348509583   -1.38166562463487
O          -0.20176865287246   -0.62411980574004   -1.87876682954371
H           0.30342484601853   -0.93436540191234   -1.10828523702532
H           0.14166412459959    0.27798202670213   -2.05158882829995
O           1.00958382333785    1.76692470670107   -1.86232722914270
H           1.41147064207599    1.59787173835453   -0.98668446662461
H           1.73646882984653    1.97317137370114   -2.45310923770258
O          -1.55939442814295   -0.94254203405841    1.37111942391293
H          -2.09580652469784   -0.77260819924287    0.47465907427299
H          -0.69919431587140   -1.38104070548494    1.08175316349433
H          -1.08360738892124   -0.00756233553049    1.60782796071533
