    19
        -40.91359099
S           0.80180292230170   -0.47015795923152    1.74828930752755
O           0.86132187676451    1.02379740884266    1.50507742784727
O          -0.35198544474929   -0.82973538616365    2.51147360823817
O           0.97408660162047   -1.20044881442059    0.52053673236251
O           2.08406567116889   -0.71653165442515    2.62128915801621
H           1.88589040581184   -0.39095811654636    3.49696349423211
O          -1.68050131037743   -1.04425957344280    0.02659799773128
H          -2.11670253772574   -1.20372207034032    0.86830004279940
H          -0.75440899657669   -1.29932514823134    0.17724957983143
O           0.51510071084833   -0.97928655134861   -2.18764201197751
H           0.94287237330934   -1.10812555106588   -1.32717465130476
H          -0.35967904787479   -1.36869860927090   -2.10075773249827
O           0.14841038312280    1.67041217642036   -2.32702518296155
H          -0.29798816713019    1.87709904012929   -3.14941793226486
H           0.39852719279466    0.71976688456920   -2.37030521185967
O          -1.02906425163741    1.56087778069342    0.02398750347432
H          -1.44404960557979    0.67118773123689   -0.05626878670458
H           0.02520751055605    1.34345052753974    0.87297662970514
H          -0.60290627656437    1.74465788501313   -0.85414995220057
