    19
        -40.92174070
S           0.01306780380968    0.05124631790743    0.89484812416307
O           1.33282358588887    0.00064356251261    0.14739136665895
O          -0.61679121684190    1.34129172822331    0.70795075910512
O          -0.80864456460749   -1.06976008684886    0.54392699479844
O           0.43324790105285   -0.08213583602244    2.37472874659134
H           0.75545742796574    0.81618573224310    2.64575035656050
O           0.83852606997490    2.47146155861662    2.60901404949254
H           0.30311844516269    2.42170061008193    1.79554677461597
H           0.31349948443463    2.94272983602655    3.26087883433313
O          -0.16093151737469   -2.78228768182159   -1.42817802666245
H           0.35899306727136   -3.50055082133637   -1.06386336280990
H          -0.51288399344268   -2.28168070714167   -0.66769812644722
O          -1.51045972999268    0.65292473971201   -1.75242165098958
H          -2.08167375951433   -0.08578593816305   -1.52624547043644
H          -1.30647033614479    1.09700566473479   -0.91282824281443
O           0.85298727804430   -0.45919499601097   -2.23206108516163
H           1.20768603997166   -0.17507740948744   -0.91892807786054
H           0.57968169994316   -1.40345175842501   -2.16734824090291
H           0.00876630446694    0.04473547519320   -2.31046372234277
