    19
        -40.91941587
S          -0.51359898372940    1.39773466844056   -0.63307617103299
O          -0.41299914500588    0.44487139089553   -1.72374850470159
O          -1.63369204272812    1.06198944295803    0.25431111846552
O           0.72653706096715    1.56275522571225    0.09132388604414
O          -0.86407365504536    2.79770546840154   -1.26320793339616
H          -1.66943437944234    2.62227939652016   -1.73993491166695
O           1.06184621499249   -0.06833394031801    2.08060900833660
H           1.07373459949734    0.42513486553773    2.90278276593689
H           1.02246525089204    0.60375660549339    1.35151658747781
O           1.91252779594726   -0.88289790937991   -0.95813716721801
H           2.36768782056958   -0.42307037442935   -0.24979388833118
H           1.32367182962671   -0.22905378584150   -1.36491792659919
O          -0.47671673578865   -2.08688069660539   -0.88511226006098
H           0.50026829778991   -2.10067156100927   -0.87533532605243
H          -0.67170948960198   -1.27735307320561   -1.40329114882101
O          -1.13212975091261   -1.11938883466437    1.31546842056573
H          -0.24543838292774   -0.85324397332713    1.74518105073955
H          -1.47960624234293   -0.20604554940960    0.92583542010503
H          -0.88934008276178   -1.66928737576677    0.42952699020059
