    19
        -40.91241717
S          -1.06313489333693    0.29575975983179   -0.97831067429194
O          -0.05692724215499   -0.17831144116676   -1.91313193947411
O          -1.34795861623676   -0.69460287118571    0.06106062806877
O          -0.74796105770462    1.58893154382409   -0.41134346737258
O          -2.40631617368170    0.47409256714510   -1.78834524878240
H          -2.58910666339807   -0.39028707515596   -2.14691740962553
O           1.90748467380171    0.49984182056948   -0.26710384192468
H           1.76986071879022    1.44009016948515   -0.12058815349580
H           1.31886282479303    0.26532199073123   -1.01670127001929
O          -0.43019781413870    1.58226550880427    2.16882742670698
H          -1.29457277084991    1.55922663046919    2.58416334728061
H          -0.59173234032494    1.73070040438382    1.20085171251628
O           1.05605434037052   -2.35018372136218   -0.66965256213466
H           0.57251792717098   -1.72991344927788   -1.23414327162956
H           1.95234650429589   -2.38189167404210   -1.00874527370155
O           0.59850996331789   -0.65684995236836    1.60158296365500
H          -0.20924105894978   -0.91529817519082    0.98691879927203
H           1.30220018653921   -0.35601825765861    0.91915517527995
H           0.25931148169675    0.21712623216385    2.03242304967225
