    19
        -40.91989996
S          -0.44564045580759    0.81804726038291   -1.09012201960861
O          -0.95309385283912   -0.55496139740660   -0.82419775091883
O           0.44096933851166    1.22697300887035   -0.01266666100068
O           0.14621751712307    0.93079593789090   -2.38865793150495
O          -1.71812389973175    1.73986046033752   -1.01226258874409
H          -1.99697160512404    1.70169076656899   -0.09282986472251
O           0.62027250358587   -0.29295365787602    2.07666584286091
H           0.65202948239948    0.46832515046060    1.44784249940730
H          -0.31615393464996   -0.34163885636078    2.31770914017103
O          -2.10919888153346    0.10630907833052    1.42403032291470
H          -1.77491516520859   -0.25992159154508    0.57830336928895
H          -2.98059795829299   -0.26988149709882    1.56152951357496
O           1.00444939773939   -1.76797700454469    0.08550328888418
H           0.11875332961471   -1.42979786778554   -0.35794167198431
H           0.94916780591656   -1.28033636814336    1.02372511753450
O           2.36117691015337   -0.21321450245537   -1.41195765883028
H           1.70266592013584   -1.26603397876885   -0.48105916265277
H           1.64573315784342    0.15725913391603   -1.97247329936278
H           2.65326040016385    0.52745592522762   -0.87114049530686
