    19
        -40.92246925
S           0.52087690589579   -0.24827880289762    0.90142967883778
O           1.64288393932624   -0.74175206072927    0.13718884539462
O           0.14432588951781    1.13989656561108    0.39077751234171
O          -0.62490481632063   -1.10631777720454    0.92414272742499
O           0.97208983547756    0.03588775315010    2.35086820269177
H           1.79345723552746    0.57772056273762    2.24301420193613
O           2.96202741546880    1.31257042243273    1.26759599545625
H           2.57024540052174    2.07344164857226    0.82979381893503
H           2.88903955197942    0.56944148285505    0.64667899769316
O           0.10321207912925   -1.38714264079664   -1.98429277917613
H          -0.43855779347655   -2.09821731255003   -1.63311184409234
H           0.82111686669688   -1.25615464550046   -1.34132959764406
O          -3.00205075627293   -0.47142983878443   -0.15991185565838
H          -3.57259324561629   -0.10001727105064    0.51499831795006
H          -2.22766739894214   -0.84173674034096    0.30479922339618
O          -1.24373780755025    0.86449019677931   -1.62602295560889
H          -2.06638446676417    0.48647727135855   -1.23371758975402
H          -0.47373806495535    1.10168597967457   -0.51850774938621
H          -0.76964076964570    0.08943519668580   -2.01439316073696
