    19
        -40.91793143
S           0.28685643602490   -0.08956268786965    1.73133315668044
O          -0.82256520316036    0.40073208278873    2.51645627628568
O          -0.05387020035315   -1.32879788618829    1.01380364073556
O           0.84494098956911    0.89814847894683    0.83090439262306
O           1.44244310031505   -0.48250377748128    2.73656950252346
H           1.00807617556724   -1.00080262995332    3.40865464945399
O          -1.80272516429034    1.55741135726259    0.37964926812202
H          -1.66987259737452    1.23380532770981    1.29939933989387
H          -0.95995747430070    1.97387224730979    0.16363345412314
O           2.09248506638929    0.05136703357826   -1.30200867673911
H           2.66208662834810    0.78243009932410   -1.54868758806513
H           1.68261938031958    0.30903705743604   -0.44208760453967
O          -0.04482237805298   -0.50216518761679   -2.70255591816530
H           0.79914737591995   -0.26946420691813   -2.22669598438560
H           0.11087039107440   -1.35160917834043   -3.12032236197583
O          -1.65382728752843   -0.71160361563643   -0.74988790463599
H          -1.85980795193857    0.23669944521812   -0.40131878626948
H          -1.06400330881662   -0.61571900582069   -1.59510893835437
H          -0.99807396772672   -1.09127497376298    0.00827007267261
