    19
        -40.91612672
S           0.20620822896435    1.59998266611425   -0.64186197488637
O           0.02869243408786    0.31126181254981   -1.35360302117143
O          -1.07644814519444    2.09440811982734   -0.17703534683570
O           1.23455883600349    1.52686511815231    0.35383222961266
O           0.69409765909040    2.60918586502958   -1.75853337074919
H          -0.10198312956569    2.80273242891156   -2.24398333817950
O          -1.19224026927549   -1.33219057809376    0.03459453739030
H          -0.71045313233932   -0.65695866995313   -0.63137487626194
H          -0.40811895119892   -1.82355254121239    0.51172881406209
O           0.86373099323260   -2.37899417319233    1.05594648075292
H           1.53528502666822   -1.77429108309587    0.62072799388454
H           1.09091398350453   -3.27341852041771    0.79510005198131
O           2.34050090473584   -0.75111573177360   -0.33464778433536
H           2.17783863987969    0.11805297335226    0.08777226862882
H           1.82140036360133   -0.69055513671540   -1.14632556376442
O          -2.11224625798367    0.47485248052861    1.54339689610000
H          -3.05526410143095    0.65173087098413    1.56348110418723
H          -1.63124751204448   -0.70582312967600    0.72684227864578
H          -1.70522558072111    1.19782719873263    0.99394264094090
