    19
        -40.91612652
S           0.23420372802872   -1.15035913909157   -1.28007740663702
O           1.13220346913227   -0.30914382069179   -2.04918512760239
O           0.67481218966603   -1.20686272824068    0.13471023638625
O          -1.15825728907671   -0.83168092066507   -1.39710558321375
O           0.43335171841947   -2.62436056782220   -1.81967849367434
H           1.37519746139541   -2.68798622522348   -1.94597828600304
O          -1.88884655096844   -1.17027776908848    1.10068948171563
H          -1.02830139645793   -1.58736039409473    1.23301011576389
H          -1.91510329649907   -1.03946281329425    0.12986110326620
O          -1.40658657297328    1.21528142055889    2.01737016010647
H          -1.73288098447334    0.33401522383279    1.66659358941017
H          -1.51870788745495    1.18972613027699    2.96943822635102
O           0.93687244176561    1.05715583073384    1.09578472749592
H           0.89452571329874    0.05974009844679    0.72824634204580
H          -0.00614827921114    1.21868430888384    1.50641714410663
O           1.06528640930350    2.12352267037859   -1.19221123528110
H           1.87626780171293    2.54646623626857   -1.48269991202671
H           1.03235267050350    1.24073717958508   -1.65016356223754
H           0.99975866389780    1.62216527922617    0.23497848000843
