    19
        -40.91612668
S          -0.38138988178779    1.54672106010478   -0.69054059256151
O          -0.50788308885604    1.08021449984444    0.71138237367557
O           0.99540671833907    1.90644463046333   -0.97468536641732
O          -0.98211558807916    0.63318236147898   -1.61725838870073
O          -1.21238605434227    2.89225611416871   -0.74032439675644
H          -0.64082813013207    3.52059217463637   -0.30971480051711
O          -0.48661738817383   -2.62569333408774    0.62387321751643
H          -0.81682822976968   -3.17529514178881    1.33698940432562
H          -1.25357646582086   -2.05247067480191    0.32516987253883
O          -2.32241664703922   -0.87000234038693    0.06494134832768
H          -1.99468564787225   -0.45550261480136   -0.76033823274499
H          -2.13081891401009   -0.19595478555035    0.72895363296727
O           1.08798642357629   -0.74298083584666    1.20871317747233
H           0.41608344177647    0.07097941404404    1.07557251634171
H           0.51661691360527   -1.58472128240209    0.98779596921041
O           2.53913930665340   -0.15072385352613   -0.77432608526593
H           1.98046404224602    0.64176821539491   -0.99812537334341
H           3.42996782620266    0.17894517966784   -0.63753086830007
H           1.76388134353263   -0.61775878659853    0.43945260223064
