    19
        -40.92158943
S          -0.98308927133170    0.58601085356703    0.93136415637774
O          -0.24005879455927   -0.65127212202406    1.11825524654506
O          -0.57734098310423    1.67520645560295    1.77740783263468
O          -1.01267051061271    0.96024107028304   -0.48853206765978
O          -2.47710659041790    0.23017233358363    1.32256159374079
H          -2.86014570447421    1.06789508537414    1.56412113201974
O           1.50322396959567    2.19095816420857    0.19633959864024
H           0.83058020314340    2.11506371373336    0.90098410107822
H           1.04725784026399    2.59115929215023   -0.54775594813796
O          -0.77955492705008   -2.55615904205820   -0.59516630515681
H          -0.72859092664680   -1.93858234321544    0.17215232373067
H          -0.29605647766793   -3.34609204070500   -0.34504216442813
O           2.06428154274471   -0.36107975799731   -0.19450902761473
H           1.44221146414396   -0.61840011726739    0.51435228242367
H           2.13299979959080    0.61777029107934   -0.09271967456796
O           0.26816162136525   -0.62214340473262   -1.89977769644421
H          -0.15494027155140   -1.49550656361657   -1.60101064661918
H          -0.33818004804940    0.09756929623029   -1.42313044899984
H           1.15901807462192   -0.54281117418919   -1.30989427755939
