    19
        -40.90710278
S          -0.03406255587981    0.72633254475644    1.63426797424954
O          -0.55094637105182    1.04246432836301    0.23158989202126
O          -0.87643220391967   -0.26241045251514    2.24336254783691
O           1.36898371288105    0.49095844191463    1.61571400439097
O          -0.28273300498953    2.09082316523675    2.37803406459173
H          -1.22244863410255    2.16654827612339    2.53362577543712
O           0.60932564862305    0.25419041466436   -2.88856649025225
H           0.09612475271628    1.06137788964081   -2.95574546087910
H           1.34606791323564    0.46378786582109   -2.27675718386992
O           2.42971462823863    0.71076853285628   -0.90328955711463
H           3.11930095764073    0.04382822789620   -0.89988290404365
H           2.06144130136307    0.70802470562411   -0.00215801722998
O          -2.28961988067897   -1.89068779468260    0.57492887700004
H          -1.87755425946464   -1.30648902278124    1.23954558228226
H          -2.33222602094932   -2.75773265968289    0.98296127794812
O          -0.14972623724990   -1.15830376087230   -0.81357878503128
H          -0.02992583742803   -0.92346646649246   -1.76228451695228
H          -0.37178081875202    0.12850505065536   -0.28136517185902
H          -1.01350310024375   -1.58851928652153   -0.65040191853988
