    19
        -40.91612675
S          -0.66936895553108   -1.44665320711459   -0.68724154463169
O          -0.74732916512005   -0.93712860615133    0.70313305648055
O          -1.63393342459976   -0.75932914965392   -1.52562175192406
O           0.67622730850658   -1.45856472948532   -1.18072456984517
O          -1.15485145417694   -2.94940520997035   -0.58988950549047
H          -2.09955288730266   -2.87103144517155   -0.49825508268807
O           1.99107630891102    1.53020015440983    1.10008891897232
H           2.12107866573118    0.53692112567135    1.05001051605842
H           2.33699155662423    1.80936014154513    1.94982107182804
O           1.96609244484230   -1.07048095777833    1.07133618506441
H           1.12755057562168   -1.24556650525927    1.51633894867465
H           1.76023259658208   -1.28225444126506    0.13683784254780
O          -0.51184223971747    1.52393485712297    0.78149076615380
H          -0.67165681894733    0.47270287960139    0.81194785832277
H           0.51587545293464    1.63008287641450    0.90925176832073
O          -1.09752350869422    1.76019937670881   -1.66576384259862
H          -0.72819894821103    1.76628865915363   -0.19777309035538
H          -1.27382647370480    0.78530001173388   -1.75953671605553
H          -1.90704104376500    2.20542413949731   -1.92545083882858
