    19
        -40.90710311
S           0.55496984755921   -0.10540691691087   -1.69658607498670
O           1.02316788249818    0.50281907774602   -0.37552125044169
O           0.83023067548921   -1.51341538238340   -1.70004127983733
O          -0.76656139209513    0.31942870956359   -2.00895659087562
O           1.53447613935852    0.57554747482142   -2.72337452020806
H           2.38944104286692    0.16076795520788   -2.62349192056409
O          -0.66905342783989    1.65606954264232    2.36412997989232
H           0.17604688443067    2.10709728473114    2.32075649663162
H          -1.13322796288562    1.89170665575606    1.53345606461598
O           1.05158514930753   -2.74187382334993    0.72414932328708
H           1.05966879975226   -2.36940663259181   -0.17800195159790
H           0.68702707542127   -3.62479231963592    0.63710355697606
O          -1.79982329874935    1.99430275072962   -0.09927687442697
H          -1.40106619350438    1.46020093067644   -0.80880906634814
H          -2.73048619774609    1.76122207987334   -0.09588601091300
O          -0.54097569385470   -0.65970995032564    1.14084615590034
H           0.35547911629753    0.05771823409769    0.32191493167662
H          -0.00531637393863   -1.44445223823148    1.37514682162039
H          -0.61558208237061   -0.02782344241544    1.89244221958556
