    19
        -40.91892665
S          -0.10835662178417   -1.37815630282401   -0.38268156912218
O           0.42194032557615   -1.01014176500307    0.94369178554864
O          -1.51352689225677   -1.71634684224002   -0.31152770277489
O           0.22204692173854   -0.37735519322142   -1.36666380772477
O           0.66575134198233   -2.69458936382202   -0.79285447616100
H           0.23694649791129   -3.38714487078774   -0.29869343448430
O          -2.62496232807751    0.55450113994810    0.28577227025358
H          -3.40617655201956    0.36991555923709    0.81172032435169
H          -2.29185905016052   -0.32183564520724   -0.03685269051293
O           2.63272066160215    0.22332713739623   -0.30672905426579
H           1.96048888359503   -0.17208175946418   -0.88656848480797
H           2.51453255938101   -0.21752513828227    0.53971684442747
O           0.85225037710795    2.19135985279368   -0.61611299595687
H           1.72702252566600    1.76586549214154   -0.46788852473856
H           0.43967521285904    1.62104432880521   -1.28416900711208
O          -0.42844756749948    1.28730408135753    1.33244874049946
H          -0.02247959329030    0.31739240737394    1.29518075111560
H           0.10075640775575    1.80147225570367    0.56260699402236
H          -1.37832312009784    1.14299464616693    0.97960405744011
