    19
        -40.91241714
S           0.25391880148784   -1.25124806515909    0.73816764488741
O           0.48029706361993   -1.25366871156516   -0.70787351423270
O           1.21420404981628   -0.41055645170297    1.43254625122976
O          -1.11953820039506   -0.93311786901224    1.06291954526741
O           0.49853190107588   -2.73490271853476    1.21868986070565
H           1.40629151226854   -2.91664470443234    0.99047407011667
O           2.36774924281692    1.08417039410230   -0.55150431687370
H           2.14790550474549    0.45487322455486    0.15053581539349
H           2.62374916166311    1.89821899146936   -0.11431605538871
O          -0.17870653005504    1.77611151632435    0.87906047978116
H          -1.04537408949395    1.59751234979940    1.25524963620470
H           0.40778131777544    1.07382991371265    1.23433990232230
O          -2.54150071151788   -0.12391777210057   -0.95727408168549
H          -2.13065643117569   -0.48006360909500   -0.12689283746373
H          -2.79402384542990   -0.88767177218282   -1.47989877046599
O          -0.32396884489623    0.94445275576518   -1.53560158878095
H           0.19714326020446    0.05572565979653   -1.34688342853986
H          -1.30379771535918    0.62861993650111   -1.46614230597386
H          -0.16000545714969    1.47827692175907   -0.67559630650327
