    19
        -40.91359129
S           1.13713677705951   -0.65135148836479   -1.48385220088952
O           0.17548088302633   -0.84947867660570   -2.52262565069822
O           1.37236996067815    0.82159300997661   -1.22064966008008
O           0.86804840279927   -1.35842413891636   -0.25989017915750
O           2.54369432410790   -1.12664510212818   -1.99652929709334
H           2.63671989924208   -0.79684538593492   -2.88794502686325
O          -0.22383310045553   -0.96995716703530    2.23898250326699
H           0.38233703981665   -1.19451600952458    1.51632109780683
H          -1.09817710036650   -1.22291197753629    1.92926748049435
O          -0.19095704069659    1.70734431417912    2.29690319921587
H          -0.11317223853638    0.73150928662458    2.39678911526944
H          -0.79698023769089    2.00792361548177    2.97566364120970
O          -1.76297434511184   -0.76787672417970   -0.46940850991114
H          -0.88331862388313   -1.17156181620015   -0.37626239066231
H          -1.98709811781687   -0.88521865127605   -1.39684641376129
O          -0.72396640633610    1.70011011049317   -0.27941295979922
H          -1.28292036023058    0.88973931862839   -0.31602467625776
H          -0.51499719378197    1.84570419496771    0.68083154510460
H           0.46260748818379    1.29086329736174   -0.82531160716199
