    19
        -40.92079115
S          -1.25237886410819   -0.65023538754164   -0.46632920988904
O          -1.01800288304096   -1.24759384486880   -1.75565052409083
O          -0.35536901188580   -1.11786542092626    0.58148974477030
O          -1.28009432178959    0.81270721573088   -0.52170429109877
O          -2.69753514745969   -1.09516525961014    0.00096656797125
H          -3.24346091833806   -0.89780544284134   -0.75366394190465
O           1.26768306614466   -0.13760197430801   -2.48233770963869
H           0.37954630014269   -0.51578238259844   -2.30313093730389
H           1.65964246456897   -0.68761941535292   -3.16329364135688
O           1.99249610521161    0.02613978617955    0.04652403226433
H           1.31152664674312   -0.62922372992339    0.30064574632214
H           1.94287103968708    0.04730745181090   -0.93801746528853
O          -0.28722881668909    0.35462655434689    2.75116727325260
H          -0.45349614788986   -0.30960297265685    2.04119861041404
H           0.31891053196986   -0.05463518728504    3.37195213630913
O           0.50268820607094    1.86081609964876    0.83835181575262
H          -0.29300669510486    1.55931031651883    0.21610082136735
H           0.22705848015788    1.47142890337981    1.73421497107687
H           1.27814996555640    1.21079469032459    0.50151599107640
