    19
        -40.91793146
S          -0.63387001377170    1.63836866865732   -0.03869549173324
O          -1.15399225059642    2.07558730126401    1.23639532892643
O           0.82569185423099    1.45218755176115   -0.00102091764778
O          -1.29630641143693    0.46364772921825   -0.56685829064221
O          -0.88887386808150    2.80139934711593   -1.07937631853815
H          -0.58656389434175    3.58890205439269   -0.63509325724387
O           1.48812082569774   -2.27077327546610   -0.43124354858024
H           2.38355653178638   -2.30075296495131   -0.77410192259750
H           0.93024977113845   -1.86490859686334   -1.15029964968741
O          -1.19444969980127   -0.41291376755840    2.05514157078090
H          -1.65582742377957   -0.71302360181850    1.26303707429400
H          -1.27725141431960    0.56663588030713    2.01183293524010
O           0.03409106499486   -1.05014384212886   -2.22858671773606
H          -0.64471660682085   -1.52390695697260   -2.71285630219986
H          -0.44509296960426   -0.39954243103242   -1.66210443234633
O           1.25532986724204   -0.52541698810380    1.39756931237701
H           0.30692109418219   -0.60214446877882    1.79483190658199
H           1.37258776056658   -1.29126844428837    0.71096565659138
H           1.18039579172289    0.36806679499310    0.81046303361916
