    19
        -40.92008981
S           0.76102846560954   -0.13293708862014    0.24011541129539
O           0.38120448619651    0.46059677343202   -1.02430286849942
O          -0.35480080515384   -0.48516201613223    1.07342115076244
O           1.63807729025914   -1.36150951670402   -0.01697599512333
O           1.69988339581868    0.81824902475910    0.98765765384654
H           1.10583035528950    1.37647107621490    1.61714664617447
O          -0.75231654321894    2.77459497972117   -0.20492232361902
H          -0.31714328838258    3.49857663314875   -0.65984564862007
H          -0.43626011629827    1.95426098780425   -0.62542872473235
O          -0.11150625402733    2.00814448859960    2.27233378580784
H          -0.47267540096685    2.48468706814421    1.49193607206855
H          -0.63863242971036    1.20232657909813    2.34751562143054
O          -0.88672410218431   -1.60914007289767   -2.21614834477594
H          -0.52086799968518   -0.77258795757678   -1.87565884324881
H          -0.48438775034780   -1.75248567049319   -3.07528978119643
O          -0.25263562622208   -3.02650972173493   -0.04281024076484
H           1.00584698271254   -2.17448691906233   -0.01780554327868
H          -0.74182827996858   -2.53805506247570    0.63161199462879
H          -0.62209237971988   -2.72503357522330   -0.90255002215955
