    19
        -40.91952813
S          -0.52214906266043    0.70088394375365    1.17497855302716
O           0.68373890366024   -0.17664588911197    1.14548794154690
O          -1.07878576040294    0.78040382319869   -0.17633698782534
O          -1.46492241714603    0.29534299049141    2.16136995676461
O           0.03213422919813    2.12963609506457    1.51547118194980
H           0.61881942012422    2.34602544511399    0.78177754927023
O          -2.20128799085946   -1.58088464004237    0.16167729018657
H          -2.31460428078012   -1.52751100983747    1.11785939996261
H          -2.10537336876860   -0.64706846697589   -0.11262633231607
O           0.42123611121952   -0.11205704123294   -2.12550515639810
H           1.23248533597751    0.38322729947931   -1.94084558080042
H          -0.26474692734478    0.36414239552846   -1.60282375044620
O           2.02979523702437    1.42839656386196   -0.40035528164134
H           1.68047849575637    0.75549974106307    0.22400058429551
H           2.93791844534113    1.59935021673825   -0.14409772496103
O           0.22755507105458   -1.99200919330838   -0.47250776848984
H           0.34800994909296   -1.35564573648193   -1.30626602945917
H           0.52438298057364   -1.34235806358855    0.30048498302443
H          -0.78468437110682   -2.04872847362270   -0.30174281770393
