    19
        -40.91889845
S          -0.46066585912475    0.95333671672794   -1.06038303936790
O           0.69259286474234    1.31950621273425   -1.85634771160390
O          -0.63159770571714   -0.51528950728167   -1.02671984703949
O          -0.47522604413520    1.50048344620884    0.26994491309751
O          -1.72586846242943    1.50750319898809   -1.82800193201718
H          -1.46393301381993    1.45763582131757   -2.74239301875858
O          -2.22774507750452   -1.31305916256405    0.98189467985282
H          -1.79086921766904   -0.99154893531177    0.16840645394596
H          -2.51172146225149   -2.21083960553783    0.80373524088153
O           1.16864479620077   -1.22928225203741    0.58510565957695
H           0.45899894555723   -1.09215605889439   -0.14234186874011
H           0.63400658053017   -0.79924132382109    1.47264556954034
O          -0.22970624318406   -0.13405038617732    2.29234070039276
H          -1.07216334438944   -0.61446123731292    2.14142511737291
H          -0.32961390273293    0.67902129817111    1.73999626515301
O           2.67277064777089    0.61232815902799   -0.32688042854223
H           3.42193145549436    0.42128800980504   -0.89539343304053
H           1.97508893997839    1.00858429056623   -0.90769301209677
H           1.89507611268251   -0.55975870460893    0.33065971139351
