    19
        -40.91941561
S           0.46293486046722   -1.41114583788087   -0.64875843958076
O           0.49073672006578   -1.73581834801743    0.78260468562660
O          -0.89426291171856   -1.15529071746842   -1.09569309097743
O           1.38024468936642   -0.34556091756386   -0.98499540006542
O           0.96878469655078   -2.70185356180779   -1.39560639031218
H           0.32286806236607   -3.35742793176092   -1.15148365704301
O           1.56624107658248    1.53983250304302    0.78643861410530
H           1.57436364307002    0.86613423345928    0.05776589486061
H           2.45132976656720    1.54975391339240    1.15542030128837
O          -0.73502336848029    1.59868657632163   -1.49758898590411
H           0.17006383455529    1.91484978268640   -1.46055409945829
H          -0.67809418439898    0.64563881171425   -1.66486094856292
O          -2.19900461505417    0.55362941577426    0.48326449782734
H          -1.99997980880470   -0.23792123355879   -0.06044465502629
H          -1.94117416355302    1.28644637475148   -0.10946918214684
O          -0.26423978247288    0.26805347443061    2.02712936737410
H           0.05056828207236   -0.65353711013137    1.62820808221085
H           0.43800390289912    0.91573546762739    1.66848340171116
H          -1.16436072008038    0.45979510498848    1.48014000407429
