    19
        -40.91905002
S           0.24270715191601   -0.94893869597414   -0.63430970080177
O          -0.67304652943086    0.21423353379180   -1.06171873604563
O           1.58535319086842   -0.43242814422709   -0.54314885139807
O          -0.27856392418106   -1.57946789501011    0.53379212309220
O           0.16147677517821   -1.93089514975348   -1.82930646359547
H           0.58347359292652   -1.44863727625286   -2.58314787098605
O           1.36080518908120   -0.07325258977817   -3.20666525719143
H           1.82114837738165    0.03127319157066   -2.35861473085117
H           0.72929675699874    0.64899097469404   -3.26433029475290
O          -0.86576597378608    1.68712802064986    2.26399427285464
H          -0.02808524255966    1.17206011899913    2.28980350192333
H          -0.62914351249444    2.57753575369461    2.00053681822608
O           1.34128817131616    0.16307024671312    2.10427385478450
H           1.02519703508826   -0.70833548528946    2.35896898501605
H           1.62657011854796    0.06519003327604    1.18174640656354
O          -2.39820753588957    0.18300596560185    0.73331656775030
H          -1.48293734852593    0.26537454619637   -0.39529295807031
H          -2.14950920319048   -0.69849963479919    1.03993976503222
H          -1.97205709924446    0.81259248590206    1.37016256844284
