    19
        -40.91899935
S           0.90365739299577    0.47104915685481   -0.66269960886076
O          -0.28880871661157    1.01233856334863   -1.28018044374283
O           0.70733287193114    0.38595598925104    0.81557896259876
O           1.28757009609589   -0.81747143248348   -1.19247424985377
O           2.09092607001364    1.44704454859530   -0.88238898380262
H           1.84943749347065    2.22717618355213   -0.34058030119575
O           1.18908507166277    2.97804323569415    1.06228200391647
H           1.80480700714077    3.17114982109216    1.77311375141771
H           0.83570502154831    2.08453288307410    1.22990308132536
O          -2.53547958454438    0.01915433290923   -0.50228399216559
H          -1.74624455284325    0.52756453621006   -0.83891101629539
H          -2.85068103476411   -0.49951467109402   -1.24598259954326
O          -0.10742507024044   -2.85409567594477   -0.44965443483756
H           0.44492844451481   -2.13282834441005   -0.85959899317779
H           0.51224101189527   -3.52625117510635   -0.15859649067579
O          -1.13395915233829   -1.21759762967615    1.18308256491297
H          -0.78542676999448   -2.00483056067610    0.61554284316107
H          -0.32734331027184   -0.51883031394963    1.14624213128535
H          -1.85032227967873   -0.75258943723553    0.58760579553603
