    19
        -40.91359120
S           0.88959188128304   -1.74444271382333    0.29209962948141
O           2.06726040583190   -1.35618757534620    1.00274598648442
O          -0.34781400131879   -1.60906550564444    1.15578406805778
O           0.70409561893103   -1.10081217953408   -0.98124288281286
O           0.94229872755043   -3.29186008187878    0.02799989718371
H           1.23356662227749   -3.69910572945660    0.84125821282981
O          -2.48685530780122    1.41181852543335   -0.22190239258516
H          -1.93626953543175    1.22836696492383   -1.01647147941443
H          -2.86086103966866    2.28617599334830   -0.33978121148366
O           1.53212423386554    1.25384306668336    0.06151139571854
H           1.37720323544251    0.44382147967929   -0.45346279136616
H           2.28244718233918    1.04428822462344    0.62469216515497
O          -0.66650664389305    0.98853619695160   -2.14086535782321
H          -0.31555034274101    0.10751635526722   -1.93931348130397
H           0.05569487388552    1.59892872790148   -1.96711330894558
O          -0.64946031049362    0.79953399532737    1.55995244532552
H           0.14041075357610    1.15417539328422    1.09037233111967
H          -1.43290275918588    1.04163824524831    0.99959759658897
H          -0.52847357442858   -0.55716939316204    1.40413915778885
