    19
        -40.91889847
S           0.74451976104048    1.03865176544308   -0.78237856540088
O           0.01138433727169    2.28301476670610   -0.67392381125017
O           1.07437142214835    0.50416702059620    0.55653575400458
O           0.11132734335500    0.03280085004963   -1.59275164199854
O           2.13274613022438    1.39608809753362   -1.44733822194846
H           2.29987502736572    2.28129836993025   -1.13802081343699
O           1.73525558069129   -2.09908473633969    0.48303298726940
H           2.18493541869739   -2.32012387415325    1.29993308617922
H           1.65471290656802   -1.12488109455001    0.46316014053428
O          -0.76831095353535   -2.13356333614930   -0.42858334867347
H           0.11131733602783   -2.46579903602485   -0.14733219135605
H          -0.54663727424228   -1.44440914788558   -1.10095187062710
O          -1.13492813334173   -0.43675626666644    1.31958900775188
H          -1.09771335911230   -1.28752114711944    0.58942246488207
H          -0.20530987476047   -0.02859650900395    1.17528217025184
O          -2.32367328567146    1.48506250772223    0.14526071001610
H          -1.50204168581479    1.84697538326290   -0.27319091984560
H          -1.76066835925452    0.26270685857168    0.91969631688791
H          -2.72116233765903    2.20996953807611    0.63255875675971
