    19
        -40.91892667
S          -1.21197139467440    0.71583555722105    0.27427301294534
O          -1.57636203113198    0.39984401447631    1.63861887036958
O           0.03357625047844    1.42830355359042    0.13259912401666
O          -1.23189539639400   -0.48782047199682   -0.57812259449100
O          -2.34468619585802    1.65658130504242   -0.30250720718443
H          -3.15528215442720    1.29025132882816    0.03861648311142
O           2.28763492703711    0.16382148048333   -0.80391328939428
H           1.85021946977708    0.36048630864432   -1.66313549118033
H           1.92672786382633    0.84288354110890   -0.21187270879388
O           0.84487148050596   -1.70373885959660    0.02380447491530
H           1.56557806986826   -1.00446149828749   -0.33470827475527
H          -0.06744215516938   -1.29714364379052   -0.30606403444953
O           0.33947728118004    0.86743502829699   -2.49197129960274
H          -0.32720580868451    0.17693528828054   -2.55249332536194
H           0.11786691900977    1.35316548032379   -1.67994854929656
O           0.41208558368350   -1.06459999823963    2.44456466403356
H           0.07300280058036   -1.69242271794345    3.08637355144899
H           0.79412476307058   -1.56815762932136    1.03721583844012
H          -0.33032027267833   -0.43719806712049    2.24867075522886
