    19
        -40.91897979
S          -0.44754624325238   -0.86057481183692    1.31073418156148
O           0.88430113034085   -0.23457183843374    1.23434352927992
O          -1.34044490548264   -0.14254755847409    2.18208194585868
O          -0.97155424861030   -1.08594007077250   -0.02653238141162
O          -0.20940104214096   -2.29202031464050    1.94346634879065
H          -0.25911588562808   -2.16223190838654    2.88685579976356
O          -1.94171279025782    1.38287693929489    0.08112002526988
H          -2.05313933404423    1.20678719890173    1.03135601443489
H          -1.87965565010311    0.48265706226677   -0.28797013929222
O           1.14079840358019    0.90727768711737   -2.30099348486242
H           0.40611432942757    0.86783227516548   -2.91683769611693
H           1.31835522527713   -0.03324900783775   -2.01239555441963
O           1.33863981095419   -1.47373591417040   -1.25200389845691
H           0.42690594773623   -1.50181152611478   -0.89447169532147
H           1.89886421148253   -1.38680153881993   -0.47471870677771
O           0.54528366297175    1.86323769790178   -0.04129694209887
H           0.79831570241507    1.03616646652466    0.56642953793794
H           0.83417208310128    1.57803293469172   -1.00315935407587
H          -0.48918041769548    1.84861623759795   -0.02600752990974
