    19
        -40.92218953
S          -0.19175523871032   -1.11935750778504    0.22255209936767
O          -0.01777076394464   -0.32989691214440    1.43757226608876
O          -1.22166573199175   -0.54069873108953   -0.63435311524416
O           1.07274867140314   -1.27786111250508   -0.49589668665949
O          -0.64623394729551   -2.55072264102869    0.63215858795428
H          -1.48748558250394   -2.37484441555434    1.10277484090000
O          -2.62487079457744   -1.13636948994651    1.63632002714329
H          -2.69324980260152   -0.75775162997901    0.74980792195572
H          -1.93080686648455   -0.62331139394526    2.07092888245161
O          -0.36024911217359    1.34613304481273   -2.18986926672085
H          -0.79355232959002    0.67388364878877   -1.59769919820837
H          -0.52845509177962    1.05562777835904   -3.08890784638283
O           1.59905762993217    1.67977945403888    1.17200556317194
H           2.31565955785105    1.53642422450238    1.79395466447742
H           0.92719750782508    0.96963199210489    1.35758364459858
O           1.92871583114142    0.92358225619005   -1.21351902139354
H           1.07095921517128    1.23291253042259   -1.70345475375675
H           1.89959232754449    1.37409417468385   -0.28199938610710
H           1.68216452078468   -0.08125525992207   -0.96995921363727
