    19
        -40.91833236
S           1.47186355790520   -0.43198908822855    0.78937960145225
O           1.00892389687737    0.92010812629771    1.13928738311552
O           1.11216023000188   -1.40046752151458    1.79500231171526
O           1.07864435851526   -0.78980560301440   -0.55921066071530
O           3.05379455327346   -0.34975686495779    0.77600823172860
H           3.28007412363834   -0.34363658244895    1.70111245154490
O          -2.49754560089490    0.29371385012335    0.17873736511533
H          -2.03256046199448   -0.57645338933928    0.32745563214410
H          -2.98140859710218    0.47624478488223    0.98634240386943
O          -1.17042449407629   -1.92305450222976    0.59594763652083
H          -0.41155145653398   -1.79981469779101    1.20513045086494
H          -0.75721264997101   -2.16865200272535   -0.23677109977082
O           0.42510748808875    0.90284999159570   -2.40911614612178
H           0.82126734620600    0.22761122198780   -1.80106155549089
H          -0.12655110161175    0.42071359902604   -3.02858527569860
O          -0.64539368446946    1.94810550959371   -0.35424643633269
H          -0.27596288575922    1.67083228011004   -1.26862921447940
H          -1.45696250732818    1.34237319385503   -0.16516999419598
H           0.10373787523639    1.58107769477691    0.32838690473440
