    19
        -40.92135400
S          -1.24873455184670   -0.20429357173729    0.91445379560955
O          -0.89759388809455   -1.61228693934511    0.72463480749983
O          -0.42228632729102    0.43040153056572    1.91756635560989
O          -1.27007949120032    0.51482713735271   -0.34958039452473
O          -2.73307737489295   -0.18583845573546    1.44968282947535
H          -2.65214878781987   -0.57995127184892    2.31272015038155
O           0.71220708048879    2.32743761054229   -0.50191461574525
H          -0.09048901019591    1.77041825523461   -0.51619913694277
H           0.50402608785317    3.08305399983530    0.05021844706021
O          -0.03409173078952   -0.66353466675640   -2.37033956571016
H          -0.57397716274886   -0.14230780585126   -1.73361743552992
H          -0.63952755593373   -1.25321845470840   -2.82349544858522
O           1.95592682962509    0.40631277251173    0.81959012367441
H           1.76732781973962    1.17517951243793    0.23002020895269
H           1.19020104854139    0.41088185338906    1.44149658148690
O           1.30978120298349   -1.63075041841421   -0.42791526397642
H           0.42982239153852   -1.78412886020069    0.10226817768063
H           0.96004738004777   -1.29983542568255   -1.32460787565580
H           1.73266602998336   -0.76236682158456    0.08501823924652
