    19
        -40.92267753
S           0.50509830355311   -0.56277925510891   -0.74933549222388
O           1.14502657780807    0.17984089089267    0.36492623591378
O          -0.12431866409485   -1.77108523036804   -0.23725955623166
O          -0.41364342367286    0.29122531759155   -1.46725823253906
O           1.65239469637745   -0.96274609707114   -1.71831784729763
H           2.20545514073792   -1.56227777072680   -1.16982687913346
O          -2.18770677514182   -0.53451006237193    0.80287185418434
H          -1.49140166124297   -1.15054726082708    0.47144828299348
H          -2.68427512301000   -0.26961633928641    0.02362004216210
O          -1.06382600945180    2.68255102219795   -0.65201877750171
H          -0.40566059112684    3.30985578478751   -0.95750207265635
H          -0.87904403880449    1.83305149691242   -1.12377376297678
O           2.43711042153263   -2.34781628447284    0.36692733707226
H           1.48592700092924   -2.54084036160764    0.37545367411153
H           2.54867464035462   -1.57910009188530    0.93569631982008
O          -0.67235841925105    1.38278036958705    1.49501710840605
H          -0.88138477599398    2.06776598645920    0.76141647756784
H          -1.38595117063183    0.64789541793790    1.37716429060783
H           0.20988388115388    0.88635246731635    1.10075101778168
