    19
        -40.92315426
S          -0.10140131850378   -1.67680588939992    0.24853152765369
O          -0.78449357307289   -0.96711400437753   -0.83488895863302
O           1.34951248876282   -1.61561038492715    0.05391162392702
O          -0.53209328756164   -1.22527011370445    1.54427618237212
O          -0.47710750742201   -3.20010942297191    0.11317932523365
H           0.10974287570498   -3.49802680274791   -0.57496759224385
O          -1.78921052926793    1.35618815703949   -0.02908916349176
H          -1.54802892507295    0.44468628240759   -0.30747864077296
H          -2.66815371991557    1.29432953906427    0.34761075549746
O           0.41348847659224    1.11848059394454   -1.95756392066346
H          -0.25586075354623    1.78406368054998   -1.76639058159983
H          -0.02221333123460    0.25823646907865   -1.76940581932106
O           0.22188209691003    1.28012702979965    1.73986272535969
H          -0.01886296546722    0.34677004034356    1.93914460157716
H          -0.52988392626592    1.59384869455890    1.19266242247424
O           1.96667831756044    0.79305263143821    0.02796235275355
H           1.86545353040619   -0.24615715772689    0.05259216556025
H           1.47860652361089    1.05027136107761   -0.84045252180931
H           1.32194551778294    1.10903929655293    0.82050354612670
