    19
        -40.91907727
S           1.43686292638389   -0.00162332139922    0.84516710159421
O           1.10333746113505   -0.92976883152977   -0.25621953364710
O           2.30910661458314    1.05996206353504    0.40023588605568
O           0.23938408994749    0.45161033904608    1.51451673263957
O           2.25141031222150   -0.87015522287720    1.88835860676725
H           3.15298090302826   -0.85326479129525    1.57799184517817
O          -1.22687007299683   -1.67337935960481    0.96621786100585
H          -0.87722849523568   -0.89045151801231    1.43541992574091
H          -0.45045574031323   -2.00299272297272    0.49486813594050
O          -0.30649663290711    0.38167892476517   -1.82186753825582
H          -1.26299775491302    0.06715280428726   -1.56045016914655
H           0.34093975019652   -0.23563510785630   -1.26288825124440
O          -2.51640754324828   -0.49976140036636   -0.97108347767264
H          -2.15401933789511   -0.96572853645937   -0.16202048613978
H          -2.97474241144100   -1.16253275245022   -1.49086457146152
O           0.21828681809630    2.41464680152155   -0.41831242606635
H           1.14259565107597    2.16056663350052   -0.19893745314837
H          -0.16112445013573    1.31231187740402   -1.37953800366204
H          -0.26456207758000    2.23736412076131    0.39940583552823
