    19
        -40.92217281
S           0.00822203473473    0.93852294611688    1.01308336811337
O          -0.32079215149255   -0.47091608166726    1.13252836578363
O           1.12537799365670    1.38681785915867    1.79389318226919
O           0.09099943550593    1.33959675672228   -0.39715675337639
O          -1.28247420822928    1.69637220218431    1.57786699340632
H          -0.93706636417288    2.47383464196989    2.00658555752496
O          -2.51653466378950   -0.73110761544925   -0.26188651432119
H          -1.81551759478904   -0.71629948061282    0.42972505303063
H          -3.06002297379261    0.04362894330964   -0.10566369501354
O           1.02349854802918   -1.97923150432467   -0.63157264840977
H           1.80663908891510   -1.39445361761301   -0.52867498126750
H           0.54105892698097   -1.84750134351433    0.20368718406415
O           2.60706418402448    0.08967892383078   -0.03936993241468
H           2.64926488232748    0.77446693119402   -0.71105983726263
H           2.22385170761727    0.51980213856637    0.74555358730617
O          -0.55732864118859   -0.51741782599755   -1.89698044245007
H          -1.45037019445436   -0.71465732511792   -1.45700286748031
H          -0.25845381190939    0.34985642029949   -1.37376432564692
H           0.12258380204586   -1.24099296904450   -1.49979128387844
