    19
        -40.91893429
S           0.23707421511678   -1.08123640862217   -1.33848900817195
O           0.58054046161191   -2.35626135603073   -0.76162120843949
O          -1.09712825557682   -0.60538432829226   -1.02991532043382
O           1.24594096188921   -0.05155185362017   -1.04640798875424
O           0.27578489083589   -1.27598661188781   -2.91353304858303
H           0.96636965127321   -1.92114677087443   -3.03206435681779
O           0.79159418455269    0.56584113368121    2.49118753184605
H           0.28310086082487   -0.24253182964536    2.21181683752284
H           1.67412933238224    0.26211175252467    2.71268800052275
O          -1.73287219010534    1.81825226894921   -0.37314483967709
H          -1.61570820858613    0.86864476742104   -0.63588434927489
H          -2.00749867097169    2.28476656984250   -1.16469834593099
O          -0.46107307906981   -1.52098299430679    1.51475578546891
H          -1.30052404793371   -1.26361935208704    1.12171366155024
H           0.01461316797487   -1.97254493717499    0.78816555306332
O           0.69969908971385    1.90163356952388    0.34629006500839
H           0.74724738906106    1.46305088969983    1.28381771327427
H           0.99318716590125    1.10287029187040   -0.30276071259837
H          -0.29447690886484    2.02407518902697    0.12808404042684
