    19
        -40.92174063
S           0.29656033061774   -0.13821749161561   -0.83384111442737
O           0.38815018687193    1.30461458004395   -0.91003688798587
O           1.12327374645325   -0.65369008021124    0.32966035020594
O          -1.04167823931458   -0.64780669491095   -0.76699459189551
O           0.99882794802329   -0.74248516027957   -2.06907929412063
H           1.79517491082430   -0.17375383823754   -2.23249194657888
O          -1.95628359878160   -2.03823760457497    1.34816657523225
H          -1.79624114358555   -2.97256704406596    1.20515691372696
H          -1.76718579868240   -1.59212801425689    0.50091241912879
O          -1.40460883630258    1.61478905284939    1.09435437451618
H          -0.76863653676673    1.73758162403735    0.37046185979258
H          -2.17481991922440    1.19826491707319    0.69874950885625
O           2.69317233743229    1.21925570055275   -2.20940930507820
H           2.69444788994022    1.74211931614159   -3.01520570004723
H           1.99838634997123    1.58807586814172   -1.63311269904041
O          -0.18931601474677   -0.35219698175673    2.40085205273176
H          -0.87083292257269   -1.05095225802172    2.26832519479586
H           0.62381395948700   -0.53436269871223    1.28852968282897
H          -0.64220463963538    0.49169680780226    2.16500259736702
