    19
        -40.91966058
S          -0.08781780658991   -1.67390073425578    0.34830152466586
O          -0.86791686463630   -1.13077398658232    1.44961812392218
O          -0.86468859799838   -1.65214048740517   -0.90058797260546
O           1.19524173362061   -1.03536285811255    0.19011436962526
O           0.17195390269420   -3.19267007892265    0.67067234482672
H          -0.70729306549081   -3.54140063016553    0.78097930999095
O          -1.37784701193693    1.30717212182417    0.85416283737821
H          -2.25588112933587    1.53970305941594    1.16207944924304
H          -1.20506227677818    0.37430915634217    1.17444993242435
O           1.62592351022733    1.00138929616379   -1.56144682286846
H           1.72671468697497    1.50501348030811   -0.71715184359346
H           1.83468745631839    0.09147033423810   -1.29258720446305
O           1.45370683723052    1.58580432107867    1.00807046321590
H           0.53884053292461    1.80703938279991    1.21676197939407
H           1.50511443152687    0.61668483860656    1.04760341809196
O          -0.85185387529815    0.71394930977249   -1.60062038970967
H          -0.90893214803189   -0.33254838518829   -1.41959062023598
H          -1.12662192048115    1.11080457857301   -0.71279570640321
H           0.20173159506195    0.90545727151537   -1.69803318289919
