    19
        -40.92078069
S          -0.22838483838569    0.98898973742849    0.24196288973999
O          -0.72234565119351    0.08002284911687   -0.92384487581228
O           0.57493532121478    0.16781970849243    1.12398444908584
O           0.44086842635743    2.12924756683316   -0.28522054483745
O          -1.53037699212276    1.37829352049961    0.92952164662711
H          -2.12315800997047    0.54203520328770    0.98181049897004
O           2.77581531055023    0.24068565989166   -0.42704924801353
H           3.19759390115300    1.07690741509257   -0.21617985696347
H           2.08213494315757    0.12033460899491    0.24559548110382
O          -0.66573906088254   -2.09798825873889    1.79002070075649
H          -0.16757830464013   -2.81838482635274    1.39953809496905
H          -0.12074720012898   -1.29350839732157    1.68341164986504
O          -2.78698590969358   -0.81854683831695    0.83785705252702
H          -2.14646383842513   -1.41441498210613    1.29150623608570
H          -2.70000355305761   -0.99481912842744   -0.10398999847899
O           1.16789333066374    0.60222586829131   -2.52332631010364
H           1.89681375477958    0.35905804080991   -1.90473130143112
H          -0.04124310645671    0.19089049045728   -1.67620324042498
H           1.09697146707361    1.56115174208855   -2.46466331366479
