    19
        -40.91833221
S           1.25072852329704    1.04182921153136   -0.57729480231990
O           1.74989703356746   -0.06072945699724    0.25915722776824
O           1.39552336793204    0.75783965420125   -1.98340150817370
O          -0.08401881131567    1.44215835329562   -0.17768329475153
O           2.19107280435659    2.27678424231212   -0.26020424694834
H           2.98367872665551    2.07918935312724   -0.74990755394277
O          -0.97966159978920   -0.37069254309382   -2.07192864337221
H          -0.05736351082780   -0.06236387824754   -2.19994541310993
H          -1.43987855572295    0.41124757207769   -1.75382680750977
O          -1.19948895791971   -2.20989259713439   -0.22187751326863
H          -1.15583715873128   -1.52715029310577   -0.94780317314483
H          -0.82505172750866   -3.01200130537618   -0.59074733910933
O          -1.14555614744017    0.95781297481584    2.13521764403613
H          -0.73707548132111    1.31253973797750    1.30433239663818
H          -2.09517961100064    0.97520739136281    1.99979152362295
O           0.12166668235122   -1.20135179463951    1.69872397881921
H          -0.43130494725375   -0.40547969478243    2.03134819044349
H          -0.44413462041029   -1.67650310733162    0.98075273137562
H           0.90198398106467   -0.72844382001260    1.12529661295458
