    19
        -40.92217255
S          -1.34350188226448   -0.28351476099774   -0.15174461436718
O          -2.36986694617770   -0.26620558408082    0.85058390919164
O          -0.68626008339832    0.98636405576545   -0.40486569301320
O          -0.35750304813996   -1.35318391382993    0.05012170808622
O          -2.05702671621649   -0.64327003685095   -1.53751569603405
H          -2.85414491090447   -1.10076358655943   -1.28677274082505
O           1.42716513781656    1.37313401024110    1.20138878514822
H           0.94815379217894    0.92489533539904    1.93306585105101
H           0.70605191579968    1.69019197620475    0.62944551594631
O          -0.32168949316167   -0.09671487945026    2.58748988379154
H          -0.10406617633151   -1.02951574138935    2.65371647912760
H          -1.16465971183906   -0.06123320526748    2.10168427404467
O           0.89492078767911    0.49395286830735   -2.42746369915969
H           0.43069282435701   -0.08846154468662   -3.03182512166441
H           0.21497081168238    0.83635039313055   -1.80264633506568
O           1.94438633166782   -0.53201729503194   -0.32869781212272
H           1.01986402126546   -1.00634663427385   -0.13786540559712
H           1.77687705480477   -0.13641876907683   -1.24805616657690
H           1.89563628121382    0.29275729244866    0.34995686802835
