    19
        -40.91039614
S          -1.00612503411127    0.61433798273728    1.53710479095900
O           0.29742865676971    0.86196987400594    2.11959996980219
O          -1.24700911518444    1.52187927414683    0.39449505726214
O          -1.25310889969036   -0.75899376361746    1.17889559670587
O          -2.07920855626905    1.01560598612346    2.61900803551182
H          -1.78556784547688    1.87189097133700    2.91617847956715
O           1.99031104811182    0.42351748713142    0.21740626602715
H           2.72973613565447    1.02502639747938    0.32413710390905
H           1.40945835347334    0.54449159069296    1.01438501723346
O           1.78053710955199   -1.67816893754747   -1.72199984980908
H           0.91719815270957   -2.07467327538063   -1.57201895872484
H           2.07753000386843   -1.33082796071614   -0.87545705691323
O          -1.04906054184225   -1.50239820519295   -1.29723664034178
H          -1.93060123746053   -1.64524444138015   -1.64601792918473
H          -1.15401152893145   -1.34186067054269   -0.32420438738794
O           0.11226284155057    0.77837601270084   -1.50141970484034
H           0.99230692350215    0.62871733213884   -1.01665557646413
H          -0.27579955663642   -0.15091362202204   -1.64636140914205
H          -0.52627692959038    1.19726797789630   -0.71983879417388
