    19
        -40.92079112
S          -0.69204573344195   -0.28569226413436   -1.28320655170360
O          -1.26192997383795   -0.97871189137885   -0.12604001135871
O          -0.05343443541892    0.96109223293005   -0.88489927136240
O           0.13736652637660   -1.14452366258632   -2.08841765416756
O          -1.92305888399202    0.15080936472388   -2.17714925403376
H          -2.24707298896758   -0.67463825982118   -2.52408433376477
O           1.70820720832878    0.27327733959651    0.99376759324423
H           1.96073382089082   -0.61899570343815    0.65877790221565
H           1.29152945260287    0.70347420385746    0.21971502451075
O          -1.23757134149617    2.25909946023226    1.06262315466646
H          -0.90444381207622    1.89602513374226    0.20818497418289
H          -0.74711574954246    3.06716713713901    1.22607085890111
O           1.92234939324524   -1.99382682672724   -0.33401386612606
H           2.68680952844475   -2.30774975752402   -0.82064723373680
H           1.24002734653143   -1.77881883377126   -1.00635222917964
O          -0.54042618235346   -0.00511045885246    2.03208915275525
H          -0.90675449296023    0.92911695271883    1.88059938292680
H          -0.92217118942478   -0.52586522978910    1.19873059790173
H           0.48900149709135    0.07387106308104    1.76425177412891
