    19
        -40.92315253
S          -0.52923604181071    0.89373181099395   -1.34365519779229
O          -0.72907738892876   -0.54889673569074   -1.19080043813417
O          -1.30575979761211    1.61806501243912   -0.33420197730442
O           0.86456779370616    1.24666665306508   -1.36611229555947
O          -1.15655089127557    1.30183271779944   -2.72905115096128
H          -2.08922633733744    1.32066650740233   -2.53838937562122
O          -1.17654223049411   -1.52840229945608    1.23561023634106
H          -1.22858036549390   -1.26410943091511    0.29079163361143
H          -0.42359150941569   -2.12689201609445    1.28557101068400
O           1.81893120877390    0.64121859905965    1.00218011374859
H           1.88166017099728   -0.31245378230582    0.78005005608734
H           1.65442642804676    1.06557294063066    0.12957600614909
O           1.40384475894849   -1.74273572404501   -0.14955493142066
H           0.66556373675916   -1.34257382393823   -0.66055117174172
H           2.06203287293975   -2.00423692594062   -0.79501057755583
O          -0.50430364283440    0.83551391058012    1.88492062636288
H          -0.91430549163826    1.28208041832302    1.03375390289668
H          -0.83209270805596   -0.13694197945098    1.81316104013330
H           0.53823943472759    0.80189412754030    1.65171251007048
