    19
        -40.91836649
S          -0.82154377262284   -1.43145113718487   -1.07962417540212
O          -2.02862149802686   -0.66771320297941   -0.82311749280610
O           0.19705242072502   -0.68093571871539   -1.77696263946922
O          -0.31208953224244   -2.04408077519359    0.15758618954002
O          -1.22829856461236   -2.63396330782706   -2.01605531654938
H          -1.97728236989099   -3.00524346034448   -1.55972784407821
O           2.26040006086817    0.80639386961939    1.26088093754648
H           1.90479227021120    1.13823025545971    0.40666140034658
H           2.50240656158609    1.57351730342742    1.78311279363165
O           0.90526682611781    1.62891011482821   -0.89877773656858
H           1.23570698420660    2.13386729563514   -1.64369191030237
H           0.65247535367514    0.73899209065755   -1.27295582455380
O          -1.31447990542063    1.30281524361862    0.70860833321930
H          -1.77199861405329    0.64445417936038    0.12688257515817
H          -0.64856974134367    1.72174553078300    0.13836299561130
O           0.07465493023043   -0.38373612391553    1.93215309946932
H          -0.07445786854271   -1.17980007191859    1.22722227644456
H           1.01081771201540   -0.03130974184269    1.76908081751121
H          -0.56623128287315    0.36930764653391    1.56036151124385
