    19
        -40.92217276
S           0.14604999538151   -1.31328284203635   -0.40041492728631
O          -1.09937231119097   -0.58407478677232   -0.23819333416342
O           0.40977847005262   -1.81201305647015   -1.71955886305060
O           1.27172956312685   -0.56116746894023    0.16857026513113
O          -0.01481448932451   -2.58909024659498    0.55129567843275
H           0.44380722883713   -3.28883820365111    0.09576606344422
O          -1.22419033432741   -0.10740518367175    2.32879917997436
H          -1.37493183766407   -0.38749763822648    1.39666461396568
H          -0.89909237991115   -0.88322899546962    2.78971200226735
O          -0.81675099964311    2.03401526634269   -0.74961202491837
H          -1.34331508642640    1.21835294615870   -0.67806750336987
H          -0.17659902017063    1.82143549176855   -1.46413882724404
O           0.93520139147347    0.75929308175434   -2.31453016348516
H           1.84822284781240    0.79883815755486   -2.02005328822062
H           0.69623368790520   -0.18421255372610   -2.29235282427472
O           0.49413795427193    1.49240616256375    1.30638049941884
H          -0.19326132175581    1.04131587459454    1.90144182722762
H           0.95577878411211    0.65554523648387    0.85623475901425
H          -0.05861215251692    1.88960877821220    0.48205685687210
