    19
        -40.91039640
S          -1.23880866176166   -1.34389695835169   -0.63782873258648
O          -2.19593756590272   -0.68396811804940    0.22701495377372
O          -0.85179855583375   -0.45899087529599   -1.75784974016250
O          -0.08166203040046   -1.87179904781332    0.03873749769575
O          -1.98352258035629   -2.56014337761692   -1.30813608099680
H          -2.80129360826746   -2.17920491850814   -1.61460278993148
O           2.16865015520927   -0.58612586327056   -0.05011044007145
H           1.36991028830187   -1.16392816227024    0.05860287524959
H           2.76176955638464   -1.05058216012397   -0.64314930645936
O          -0.97846474882505    1.42273309540165    1.09724066483598
H          -1.48744491813000    0.60275390480616    0.86139689891907
H          -1.62443923347983    2.12311017348845    1.20749723962019
O           1.79114149364457    1.54587642166958    1.82903654058586
H           0.86464353797752    1.39412950695310    2.03911177604577
H           2.16010884745757    0.69588114577279    1.57135072557420
O           0.63387224238224    1.28828576002566   -0.90070674018942
H          -0.02354396428537    0.56043896112930   -1.38327467744821
H           0.11026084619555    1.54729824845609   -0.06986477844609
H           1.40655890967903    0.71813224359803   -0.56446589601704
