    19
        -40.92136388
S           0.92631068392578    0.74870394563041   -0.71030809103437
O           0.57281380065323    1.08251958841587    0.68083980999965
O           2.29973447477003    0.32970354839131   -0.84039097810494
O          -0.03318508221563   -0.17141854314383   -1.27801463473388
O           0.77658831710775    2.11175941415704   -1.51097967451047
H           1.64211437261607    2.50759492865882   -1.46221084699265
O          -2.00196291066807   -1.03073626873425    0.22219215093624
H          -1.41429841906560   -0.86223214978905   -0.54959612757923
H          -2.35723054681987   -0.13574288944445    0.41799662486639
O           1.65268932580595   -2.07338948997132    0.02729924433156
H           2.07473306612013   -1.23824174056038   -0.27741056914801
H           1.18951222267435   -2.41720245975535   -0.74170532726235
O          -2.03844094302845    1.62916189783030    0.38351768739359
H          -1.08086137500998    1.59034278105821    0.56717204012900
H          -2.12981487777978    2.09014936723910   -0.45199236990744
O          -0.02051977358392   -1.12869207974119    1.70665372867825
H           0.65574170624585   -1.66929934460733    1.15987218564767
H           0.25660923635075   -0.16389216331014    1.48953426667096
H          -0.97053328812158   -1.19908834234754    1.16753089063611
