    19
        -40.92022166
S           0.27333026723536    0.87924906862630   -0.07666095702890
O          -0.73556428265943    0.45433630035311   -1.01264806354369
O           0.60574082245275   -0.12662436062627    0.90520405026940
O           1.52699423632831    1.30634734329545   -0.84756532412643
O          -0.13743031395333    2.16444677718786    0.64160921082076
H          -0.59408001184401    1.89685253560625    1.52080419544075
O          -2.53444769120500   -0.34361380027297    0.82529968193611
H          -2.45938380369204   -1.30011436714784    0.84452162657444
H          -2.03432220160296   -0.04848652952840    0.04313013619831
O          -1.21378730609471    1.08347058836754    2.65927323650510
H          -1.89435261581720    0.59372990874786    2.14417024832437
H          -0.49640598695770    0.45496924120193    2.79893163282340
O           1.50320689162560   -2.09241640414084   -0.68624020808454
H           1.14627381016131   -1.47829121575734   -0.01625009222434
H           2.36428090045819   -2.37088762997720   -0.36714280154494
O           1.31171586056054   -0.37306059513917   -2.72614253398830
H           1.57098251246568    0.72780717268827   -1.69386847321245
H           1.44078836622539   -1.16053684078635   -2.15065759800655
H           0.35646054631840   -0.26717719269599   -2.80576797712901
