    19
        -40.92079116
S          -0.71912340208600    1.03331278190045   -0.78956759548089
O           0.49716953121738    1.21140526712003   -0.00852695249649
O          -0.49185149356964    0.79350214327923   -2.19143521537795
O          -1.59264083378048    0.02755458285124   -0.18185351285170
O          -1.49073669558747    2.40977909764279   -0.66819893120203
H          -2.20907017747259    2.31460756338173   -1.28578684342222
O           1.56096896624370   -1.22532683007672    0.18253926939094
H           1.28060622768518   -1.59413855176125   -0.68802228564800
H           1.46080210252032   -0.25830519973328    0.06976154449699
O           0.49819540275076   -1.65672648133617   -2.19021593938719
H           0.05852141215486   -0.78153471442151   -2.25881717828483
H           0.96678799030112   -1.78555341017406   -3.01706582712590
O           0.20878242876488    1.00965516805426    2.59081251018568
H           0.29448416872315    1.28902146164697    1.64873663430184
H           1.06353387500827    1.16034708043575    2.99947216646459
O          -0.47697382222512   -1.25587177905338    1.61685461623757
H          -1.07389470501384   -0.80322734508896    0.87538579925773
H           0.42696586826627   -1.41915517521682    1.07441900740824
H          -0.26252682391337   -0.46934566941391    2.22150875354133
