    19
        -40.91941575
S           1.11860065162992   -0.59623826613479    1.00591914790862
O          -0.17982649206220   -0.93495936527417    1.55985382656575
O           1.38902192957059   -1.37376779606256   -0.20929714247545
O           1.29218046236934    0.82347991142012    0.79517800784941
O           2.20600669643475   -1.03879863365936    2.05547070988537
H           2.02230467002126   -1.96523047890946    2.17605305325402
O          -2.12003105138030   -0.89280511792258   -0.27131450353560
H          -2.32986876555101    0.02705955982715   -0.01730024285531
H          -1.55175446269282   -1.19240665964660    0.46971327917143
O           0.52381353425737    1.69111509970137   -1.52570321439253
H           1.28203007384511    2.01362605589741   -2.01626709527393
H           0.85531632654727    1.45659336906930   -0.62021366466120
O          -1.55664692422401    1.41242289690987    0.96679367734823
H          -1.00476351285875    0.76904561389782    1.43715463219828
H          -0.96277368606336    2.10917822960502    0.68010869188499
O          -0.26570661683896   -0.70078267881858   -1.92490311644754
H          -1.15188993266003   -0.80931904670194   -1.33478568127386
H          -0.04289779451891    0.29518366021764   -1.93550284324833
H           0.47688491417664   -1.09339634341838   -1.29095753190425
