    19
        -40.92079119
S           0.41558684419697   -1.35903531901217    0.43306450235946
O          -0.94320074933791   -0.84756906199585    0.31953114159826
O           0.86551745285603   -2.10400463921575   -0.71438259206997
O           1.34817845913605   -0.29630304162385    0.81382062914503
O           0.37626870500558   -2.36194899238336    1.65697699456190
H           1.23150182482266   -2.77932531190882    1.62687584672376
O           1.16122146815390   -0.20446233430399   -2.52861931654556
H           1.14920866570991   -0.61918422132714   -3.39340145495567
H           1.15075504157362   -0.93643688084865   -1.87452017001581
O          -1.59615555612660    1.01384219612535    2.04856904085198
H          -1.43727128877305    0.18541143667651    1.53743559555348
H          -2.51000008357335    1.26047551942660    1.89235807414701
O          -0.78220052461345    1.17819281814683   -1.40600374486619
H          -1.09393189917039    0.38161408748427   -0.93055532089138
H          -0.06279226529783    0.83776245521527   -1.98803767466255
O           0.34451703914866    1.96169867057575    0.67486031029057
H          -0.11046749085834    1.80777044882600   -0.27708882320859
H          -0.41016075606109    1.80845574189904    1.33609224322387
H           0.90342511320045    1.07304642823830    0.77302473874924
