    19
        -40.92315431
S          -0.55468777312259   -1.60357961020759    0.05921478457014
O           0.55553201353062   -1.15263282131850   -0.78210469661007
O          -0.19154773481730   -1.49086415770713    1.47434416850501
O          -1.78816713648571   -0.94492078152610   -0.27665124127390
O          -0.73784244845059   -3.14549561275161   -0.20314088875605
H          -0.05435339803482   -3.53048495696369    0.33649808232599
O           0.07116444737242    1.21385416512968   -1.88773898721569
H          -0.40761362430388    1.16909839970840   -2.71657531498552
H           0.20733287014326    0.28318768638658   -1.60189739128602
O          -1.44599559189513    1.59476109269645    0.28762645391988
H          -0.93879897768184    1.75346996788507   -0.53734113064198
H          -1.83545406825368    0.70234779846028    0.14421753038564
O           2.16071647540289    0.75586735096887    0.12709100272831
H           2.01907198491830    1.40292887554494   -0.57208753210217
H           1.77370543489848   -0.07898510820312   -0.21703175945713
O           0.33443923394586    0.90339882257312    1.88921060744040
H           1.17502080074127    0.96345704006381    1.29930027047390
H          -0.45516969902630    1.32210870179831    1.30243718278922
H           0.11264718112164   -0.11751687253611    1.87462884919323
