    19
        -40.91955070
S           0.73820358161721    0.42033890072531    0.80031141613928
O          -0.14433164526884    1.39131611716854    0.19554463767331
O           0.11482733095356   -0.51710065413383    1.67393773249508
O           1.51078069562628   -0.30041923257847   -0.32029404562736
O           1.87182523892244    1.15922140918460    1.53928411781937
H           2.20107030758413    1.81159353919685    0.87077584039305
O           2.13070880125107    2.54900248538693   -0.63918616084813
H           1.16496708731951    2.44732099019447   -0.62644685868140
H           2.46094419549365    1.94219159106683   -1.30755326976691
O          -2.67371654646543    0.50497075861450   -0.25322021674222
H          -3.24873012827169    0.99575210559526    0.33664623566257
H          -1.78780517317387    0.89878085884029   -0.16245300697295
O          -1.81076302840176   -1.97392274556993    0.39900624313428
H          -2.32318943664373   -1.20486711123436    0.07874136370194
H          -1.25642941821502   -1.61982190788247    1.11241293269742
O           0.16520043830800   -2.20319562058529   -1.23985587531165
H           0.96761020229158   -1.08678734612502   -0.73910327483472
H           0.59814958749715   -3.03483937761240   -1.03278296780274
H          -0.67932207036802   -2.17953478031427   -0.68576484311877
