    19
        -40.92003341
S          -0.67471720136233   -0.03618342538983   -0.56260211305869
O          -0.69102558007636    0.31601929979080    0.83735500070186
O           0.63588520707946   -0.40442952416010   -1.03531145615735
O          -1.68252572023081   -1.15128690692000   -0.84973586898937
O          -1.24157501648202    1.12027989007600   -1.38941227224910
H          -0.99398954103087    1.98345284689762   -0.89188007781524
O           1.02575978104161   -1.65743576499536    1.47584418389677
H           1.59211362386143   -1.53219868587184    0.70771107133379
H           0.47719282947680   -0.85451141893561    1.51524291745155
O           1.96451345429727    1.90279030989993   -0.73522239370830
H           1.60672979677377    1.00275669860550   -0.86133942834302
H           2.38106798480013    2.14757294313915   -1.56410114674983
O          -0.34454611359486    2.97414521702809    0.07168272242814
H          -0.50422506664483    2.48700947664446    0.88910117022848
H           0.59767489390484    2.80635501015832   -0.15574659011688
O          -0.97072992558338   -3.12328082616830    0.59095474688183
H          -1.59220881530159   -3.24519965095361    1.31294687278596
H          -1.43697728437417   -2.00355333034033   -0.34282382519005
H          -0.14841734657822   -2.73230214848149    0.98733647673683
