    19
        -40.91638423
S          -1.41752972420363    0.73771851367701   -0.51714865254062
O          -0.93360821335254    0.84514899532040    0.87591612015950
O          -1.27037870685649    1.97949798280135   -1.23069085533391
O          -0.86561099199695   -0.42769654689798   -1.16346221318128
O          -2.98000198181325    0.46912501456836   -0.39480922089933
H          -3.36078856714990    1.33610393186319   -0.28886923658021
O           2.42929044170404   -0.26314951308115    0.00823860861196
H           2.00736504741010    0.57146070971938   -0.32214362135683
H           3.28690092395388   -0.01179418834964    0.35683404206184
O           1.25111011955640    2.04971672102153   -0.45049449413647
H           1.03144938672368    2.36254876975974    0.43161280843932
H           0.39864565256068    2.06962175850065   -0.93021209054590
O          -0.57617954536478   -2.72125589796022   -0.02915812027217
H           0.02832941027976   -3.21756042914001   -0.58574631631903
H          -0.84517477191708   -1.92842984706034   -0.56228775011233
O           0.52192717750000   -1.03202783197629    1.51267081124714
H          -0.15327234535282   -0.20914183952646    1.31004858333388
H           0.09402663593908   -1.82469072396058    1.01318358657680
H           1.35350005235095   -0.78519555926872    0.96651800085252
