    19
        -40.92159002
S          -1.35193018502942   -0.15278695702138    0.57282280927597
O          -0.51875507178716   -1.21158527719343    0.02288146102668
O          -1.50157598725427   -0.17381374491755    2.00246997752121
O          -0.91564901961259    1.15833870660920    0.07489539657769
O          -2.78970972579571   -0.40012994032766   -0.04611940939305
H          -3.38209848139111    0.03530356599901    0.55922195961138
O           2.01252010436683   -0.45943039046345    0.40410992281672
H           1.85495901055909    0.07074834589047    1.22110774386983
H           1.22923507806064   -1.04248706227815    0.35848836629391
O          -0.00752646769336   -1.02754785276243   -2.53832153495894
H           0.48658943593051   -1.80266037565946   -2.81289922628516
H          -0.36583430820973   -1.22410085517945   -1.64066311720049
O           0.88450600855852    0.96417084192052    2.32204420478887
H           0.67602130716595    1.86045449969832    2.04826658241689
H           0.02298428016457    0.50825832886104    2.39174029627262
O           1.07300425260955    0.98682925464787   -1.39226636646338
H           1.64468815914802    0.43033981332824   -0.67694101009975
H           0.73920394489084    0.28639733427879   -2.04759593282714
H           0.20936766531828    1.19370174456651   -0.82324212324510
