    19
        -40.91955066
S          -0.33852863215975    1.04978662496602   -0.37964496245228
O           0.89980031642019    1.49756864270834    0.16510152294734
O          -0.23960410130508    0.02333647956261   -1.39162734111936
O          -1.28024769131901    0.54958096391151    0.73164482027364
O          -1.12910594251280    2.24525691106403   -0.94797886545519
H          -1.93622713165584    1.82670518694895   -1.34089009465682
O          -2.86297602391970    0.48105298135487   -1.73865206789815
H          -3.26287905241427    0.12007061046936   -0.94257196199606
H          -2.04407475301441   -0.01927662007463   -1.88782776940648
O           1.87073306278458   -1.66311550112975   -1.09594523239341
H           2.46630318999096   -1.49368286925322   -1.82807606651835
H           1.07181676168188   -1.13248369151725   -1.26422822086866
O           2.29966242724245   -0.53866402716671    1.32579884092620
H           2.30611347812803   -1.11784875127096    0.53765245965748
H           2.08819681371440    0.34326858137869    0.98064497614353
O          -0.02868190537008   -0.85790024876899    2.38360911489248
H          -0.79248019979807   -0.05796543736860    1.42583490651101
H           0.91852525987060   -0.84154054155400    2.03229594592572
H          -0.00634586637180   -0.41414928424171    3.23485998548932
