    19
        -40.92343665
S           1.07734175108609   -1.18413089324183    0.53149541607314
O           1.98526556581866   -0.05291435257117    0.72779049370540
O           0.09516265272388   -1.27783759579988    1.59049038273795
O           0.47198901944025   -1.16500217896813   -0.79075057114889
O           1.96944417471863   -2.48121494288938    0.59023374398393
H           2.35400715967795   -2.43146435325696    1.45981645066212
O           0.66427027079909    2.00258727432068    0.28082232013735
H           0.47139688358842    1.84965465498511   -0.71693184443590
H           1.33945537618842    1.23881901190564    0.51283473186889
O           0.12654044929199    1.15731512634040   -2.05911135061535
H          -0.82703032534251    1.08110049873953   -2.17460697477882
H           0.42656778783698    0.25640926604459   -1.81728026825601
O          -2.06545648210697   -0.38892642492732   -0.87407968990623
H          -2.70480295519959   -1.09757150465960   -0.78981189772662
H          -1.17963417286126   -0.81405038000844   -0.85594786403390
O          -1.30797361634088    0.91635685467400    1.34784105554398
H          -0.84687141870565    0.10269641256429    1.66323251983969
H          -0.21864565214272    1.68432833441367    0.79389641606517
H          -1.83102647850607    0.60384518235977    0.58006694028052
