    19
        -40.91892058
S           0.97399959796518   -0.63783088388543    0.15145338425829
O           0.03057568521156   -1.62211740721235    0.60685726218059
O           0.55010771972935   -0.17929367263394   -1.25689789497139
O           1.16482078227475    0.50151676899587    0.99688381926808
O           2.34300615430450   -1.31883708911608   -0.09420966262130
H           2.13173292451521   -2.11479164907859   -0.64318865098803
O          -1.34623667991959    0.29767393969800    2.05358607668794
H          -1.31583463326998   -0.60759993975057    1.71997962941751
H          -0.41817319178876    0.57036116976673    2.06174077643317
O          -2.17176216266242    2.01573226079159    0.17165129226638
H          -1.98530357148199    1.35659530979947    0.87891600418529
H          -2.66554310282311    2.72558213837916    0.58572322694664
O           0.99589061923381   -3.09598145273737   -1.43832197129461
H           0.36519182966033   -2.93200060910072   -0.71917585812343
H           0.65498199655320   -2.63260451592697   -2.20849184051414
O           0.23214055842103    2.27470686735372   -0.90386782076846
H           0.75763950325831    2.25954513314653   -0.09367291374206
H           0.41718114846151    0.85538962998329   -1.25674970307619
H          -0.71441516765850    2.28395402151859   -0.61221515553372
