    19
        -40.91792406
S           0.10312881394628    0.30829280889322   -1.65902514559927
O           0.59827660044457   -1.05454967513583   -1.74608839717248
O          -1.21916932878225    0.38313366749268   -1.05563222844872
O           1.05279303359625    1.19395213605245   -1.00633916404990
O          -0.06786768666188    0.82217751624573   -3.14727628939867
H           0.76545857815557    0.58594991594306   -3.54262007116483
O           2.13521197957356    0.17726220296770    1.07750996425373
H           2.50319217001603    0.92945580721109    1.54695899248909
H           1.78720379725502    0.54196297596550    0.21167781047136
O          -1.34275998621858    1.35832458663577    1.32093370573613
H          -2.27538786976123    1.48038658184489    1.50850467642279
H          -1.27878960510294    1.13241643231707    0.35218333063702
O          -0.85909039395116   -2.07638500490263    0.09606563423188
H          -1.64784876068106   -1.60402055083333   -0.19635832598614
H          -0.20130593335247   -1.86568573765725   -0.62255652538344
O          -0.02552174522751   -0.69302692695324    2.01291132087016
H           0.93118500860020   -0.39863434842973    1.70559133805065
H          -0.59761729924480    0.15019001013839    1.87364006035590
H          -0.36109137259618   -1.37120239780098    1.26991930368313
