    19
        -40.91892674
S           0.86161890903188   -1.11475048685537    0.26923645622197
O           1.79177438727862   -1.19267518713280   -0.83656322831963
O           0.96335162348332    0.08764867858961    1.05851940527245
O          -0.52561536216495   -1.33542818814324   -0.18067102890402
O           1.18647374014249   -2.32399708135855    1.23501831225849
H           1.37134467086830   -3.05326346681366    0.65047563629765
O           1.17516534973571    0.89252474610432   -2.25803346206398
H           1.35229050825960    0.68350177848277   -3.17780466660547
H           1.53564304324593    0.13761956412431   -1.72584537610644
O          -1.46377939732581   -0.17071608967475    2.21381477197841
H          -0.50068837600261   -0.20893069431104    2.08913957786950
H          -1.81239309604303   -0.84866197054667    1.62753769245106
O          -0.92997223874343    2.07290906667911    0.86538716758364
H          -1.39721298071640    1.46832729613536    1.48559050052821
H           0.00528163640578    1.85915861124682    1.01135016697761
O          -1.16530516793030    0.79791666658189   -1.27310887086234
H          -0.28896005638464    0.96252104827719   -1.77571632122334
H          -1.01235777092003   -0.15521923823921   -0.85534847579669
H          -1.14665942222011    1.44151495685460   -0.42297824755681
