    19
        -40.92343664
S          -0.28754075379230   -1.07188060294838   -1.27028200462991
O           0.96264828333464   -0.50466247231480   -1.72892760443716
O          -0.07872860896438   -2.09914218933660   -0.24877725544780
O          -1.23140903778727   -0.05754346126929   -0.82825078783383
O          -0.96128581641268   -1.79814398426457   -2.49524623468354
H          -0.31707527212555   -2.46001871342671   -2.72636885304788
O          -1.49128093101329    0.46911469972385    1.77492740252448
H          -1.66943929346365    0.19479106256864    0.85125651355608
H          -1.27971074791258    1.40761459234075    1.72098575468929
O          -0.16178934805924    2.26703043381840   -0.12139547643686
H          -0.59346230151112    1.47434582042524   -0.51011322144546
H          -0.08602574821740    2.90622532950314   -0.83113560825945
O           0.64528460452692   -0.91370888307006    1.81057236878597
H           0.36921210756213   -1.54902089320847    1.02758126457545
H          -0.21307792716067   -0.37838654868271    1.99194802346875
O           1.93917507988219    0.67403734112654    0.39185509047980
H           1.79620639011474    0.21560662798039   -0.47051082108461
H           1.34953606271234    1.45527189083545    0.33969945380529
H           1.30876327829701   -0.23153004978306    1.32218197542056
