    19
        -40.91793138
S          -1.65393447763531    0.15872380554289    0.57340886224925
O          -1.76302492509737    0.94966961048162    1.77750901829198
O          -1.23120120727839    0.97019914399658   -0.57963669251404
O          -0.81759384883896   -1.01464257802459    0.72061087711702
O          -3.10227043396157   -0.36616422163668    0.21704356965176
H          -3.65816646355274    0.40573214965248    0.28135534622521
O           2.24192338887610   -0.22169425234802   -1.57682866005781
H           2.30451322440658    0.03432845508099   -2.49925021496593
H           1.55606935084428   -0.94331768011071   -1.53639461837457
O           0.81554211800200    0.68783865584202    2.16267057685074
H          -0.13064077689819    0.94059248197660    2.25787322767298
H           0.78164757195002   -0.26809577856123    2.03856781594345
O           0.32325505209243   -1.99056361805275   -1.41668633320644
H          -0.19639792984707   -1.62714268025152   -0.66049723901342
H           0.51468496008935   -2.90177369793974   -1.18683771210629
O           1.11874697597386    1.58602967031595   -0.19284979032151
H           0.08963287172093    1.41014972595536   -0.43559770281232
H           1.15776888219785    1.30289219843249    0.79775832023461
H           1.64944567695034    0.88723859964607   -0.74221864086465
