    19
        -40.92217236
S          -0.07556567441125    1.36394818569596   -0.20184515976014
O          -0.57208721992596    2.06366916676666   -1.35167285088248
O          -1.12401896753184    0.64381627179231    0.53260699684419
O           1.07708637939466    0.51081288788177   -0.42988413353216
O           0.45035307083827    2.47397478106659    0.82298552315827
H          -0.02808969222501    3.26410993240086    0.58981635364061
O           1.72824596621079   -0.32541879070452    1.95957731433696
H           1.61352933981409    0.40525236217896    2.57029246695771
H           1.69442943332864    0.06663462294222    1.05674245991253
O           0.37564651997381   -1.97545669805942   -1.15231678291799
H          -0.38038939129381   -1.60862553451598   -1.66170141869033
H           0.99924022875148   -1.22873683859822   -1.11833165076297
O          -1.52089822721893   -0.34352913812971   -2.09159665736636
H          -1.17252366105137    0.56272994374127   -2.02029567759068
H          -2.34093228888019   -0.34236978227413   -1.59212103157380
O          -0.35677745608206   -1.60847520592256    1.20725835547657
H          -0.80600003689527   -0.67971713889638    0.98018983732412
H          -0.05790894548843   -1.93532942699984    0.23408663540561
H           0.49666062266708   -1.30728959023553    1.66620943000319
