    19
        -40.90523253
S          -1.27089726011037    0.14257570521305   -1.33793897100797
O          -1.60501606695628    1.31740461631939   -0.58230118324127
O          -0.65927330450103    0.35976627194336   -2.60985671927975
O          -0.47001784215803   -0.83552651573820   -0.51652760455331
O          -2.61044572265341   -0.68557665807963   -1.56059472036571
H          -3.19082436952409   -0.14208480380676   -2.08786438822881
O           1.83982454816631    1.34437062878208    1.39156224735060
H           1.79720633734811    2.17014945065445    1.87755861932088
H           1.64508653267690    1.57359848109507    0.45530608809858
O           0.92905643316283    2.03684335547152   -1.02299275126451
H           0.93975755062398    1.54982788410926   -1.85346747465747
H          -0.01168333174330    2.07900074652277   -0.78420470063858
O           0.89031360766843   -2.83995661068252    1.08406548663865
H           0.33178631266612   -3.61618904081048    1.15795176247867
H           0.71569494456659   -2.45422151052475    0.21740118584167
O          -0.02321519375822   -0.41724265916206    1.85013329911633
H           0.70246969919213    0.26992496572877    1.77638511157332
H          -0.37765289069317   -0.57564167323363    0.57629446701165
H           0.42783000602362   -1.27702264379375    1.96909025579356
