    19
        -40.92221090
S          -0.72154809718124   -0.01057222803349   -0.77389469723115
O          -1.77918024972699   -0.96904580376586   -0.71894824833940
O           0.61394559292129   -0.79096917605272   -0.78648052515002
O          -0.75404421948104    0.94506297799853   -1.83613283996352
O          -0.65036688603570    0.78543423715737    0.55539986889781
H          -0.41419878348271    0.11384272748049    1.28294736846564
O          -1.69957671221382   -2.80006419981073    1.19902111479073
H          -1.77279139130920   -2.25926778372201    0.38522992515397
H          -2.58961972707829   -2.88099533180681    1.54733635664954
O           0.66754533194342    2.94877660994647   -0.82557752527558
H           0.29052028377223    3.02172483075780    0.05486557661919
H           0.04160446188420    2.39320295900395   -1.33110933767801
O           0.04637305299788   -1.06941691896731    2.14259309884079
H          -0.60383222264405   -1.78846588653572    1.93809532585305
H           0.88546116053209   -1.36638833096149    1.77994669374350
O           2.41363392222234    0.99685674543029   -0.98622331852673
H           1.87836448420785    1.82807239902446   -0.87501766910501
H           1.37792199280232   -0.12541455736871   -0.87481500353488
H           2.76978799581736    1.02762675025246   -1.87723617421855
