    19
        -40.92221083
S           0.50146719271342    0.85700842249145   -0.35443759621164
O           0.84592192773423    0.09318404233974    0.94575689690902
O           0.01411401911589    2.14624362857980    0.02086103597953
O           1.59794817402333    0.80867908358955   -1.26983323066945
O          -0.64376862432123    0.00898470486479   -0.96672838113135
H          -1.32996370914874   -0.12722025957638   -0.22719785832912
O          -2.12590271006228   -0.26638751539399    1.07559831923032
H          -1.55163877006695   -0.71171467580492    1.70468239871874
H          -2.21759123396527    0.66269871904098    1.40739772194055
O          -1.97551342243367    2.26871477381579    1.77104379632655
H          -1.16997831464157    2.35508313111281    1.21992386816918
H          -2.59030028503807    2.93229315849631    1.45214516569058
O           1.30651057634389   -1.59788857762801   -2.35706688342448
H           0.36460729076814   -1.60612914590136   -2.54514261944688
H           1.52671956920403   -0.66310067029930   -2.17381799733838
O           1.81043748647176   -2.12766511908834    0.16325884917366
H           1.62242217999726   -2.09061626080402   -0.81280492451991
H           2.76655809485577   -2.13479716422118    0.24972659870141
H           1.24795054836320   -0.80737026562479    0.69663483030673
