    19
        -40.92037962
S          -0.47884964937060    0.59592773273654    0.75904405234130
O           0.97233847257011    0.66831622484031    0.80269773785435
O          -0.95138052616351    0.92219385222343   -0.64651212825143
O          -1.02358494792146   -0.64256108405111    1.21615171193540
O          -1.04777045297375    1.75082318420568    1.60928995570430
H          -0.46351011304150    2.53037136829082    1.43209557099855
O           1.80869619506902   -1.32025012144110   -0.79119339833615
H           2.64983340843296   -1.05606921012698   -1.16940215251763
H           1.58846548435191   -0.65434807292914   -0.11152272582256
O          -1.79222991973325   -2.67539482770929   -0.37194155417284
H          -1.67357098862921   -1.99119696591391    0.31293711072453
H          -1.28886960317008   -3.43680318181809   -0.07582033914306
O           0.97676592909872    3.29686204531048    1.08298414583551
H           1.30207533199896    2.40439516698572    0.86046682259486
H           1.47428042483859    3.59449036369195    1.84866660609821
O          -0.52782070264694   -1.06684421081687   -2.05483744650266
H           0.38696247437553   -1.27357779018434   -1.75838587105951
H          -1.10283799389671   -1.74104411486156   -1.61657415860529
H          -0.80899279318969    0.09470964155330   -1.32814394967564
