    19
        -40.92221099
S           0.91861982676632    0.42361692055513   -0.30470263851860
O           0.52744273953884   -1.06485033368736   -0.45988618649225
O           1.99268068643283    0.48993584613805    0.63470961559028
O           1.12616803490968    1.02384648363094   -1.58502745860874
O          -0.36012769654176    1.06159553368329    0.29812602705183
H          -0.61979247136614    0.48842440545057    1.09830385560890
O          -0.83706246588346   -0.59173725089379    2.16447748052789
H           0.03730627443371   -0.66057902944930    2.62520239824054
H          -0.95098196720178   -1.42369587052126    1.69692700815324
O          -1.35968836032748    1.54185435581316   -2.36524791553379
H          -0.39124897059693    1.53976843583157   -2.23032778885262
H          -1.72714416572646    1.93845203039224   -1.57132245708567
O           1.66018943397978   -0.67273767725997    2.99598619112457
H           1.94359579382022   -0.31806302031068    2.12765689231257
H           2.00758704593413   -0.07070584385284    3.65697070005738
O          -1.30950754798601   -1.07759469485063   -2.22061111805692
H          -0.20340397822434   -1.13684885712627   -1.16369094469802
H          -1.48136167560345   -0.10413987672619   -2.33243550050655
H          -0.97327053630132   -1.38654153683633   -3.06510815033804
