    19
        -40.92221095
S           0.26908503660535    0.74499010264096    0.69939140173982
O          -0.35642393917950    0.74439215132873    1.98361286587659
O          -0.84810087257293    0.87706400283929   -0.36219112062488
O           1.29712847270595    1.71060378271009    0.46843732129483
O           0.87592820745735   -0.65038753426374    0.39861477639222
H           0.09549197018503   -1.30259634003802    0.35682707022299
O          -2.31812368791103   -0.98903307690570    2.41211676531175
H          -1.69998815316692   -0.23271198406461    2.33466314031117
H          -2.18102337370609   -1.35790723837174    3.28684879940432
O           2.71117527099086    0.56343680394896   -1.46612189843190
H           2.40790727849517    1.09763190004084   -0.70548035690623
H           2.79420580309168   -0.33296609249885   -1.13122526664614
O          -1.24910235208879   -2.03042265927744    0.24285574168956
H          -1.73132273711338   -1.61212584005306   -0.47563337476607
H          -1.73296281163951   -1.78202500304086    1.07102071415852
O           0.37681921456843    0.97781444478822   -2.59012974549855
H           0.39785318219233    1.87549851922661   -2.92979979080286
H           1.30839507497719    0.76671831080603   -2.31197055105061
H          -0.41694160373772    0.93202575030488   -1.28183647178287
