    19
        -40.92221099
S           0.78471360598706   -0.66559256864716   -0.23549385319135
O           1.78129269131482   -0.25138412716257   -1.17128618000098
O          -0.58257496695474   -0.60819708087347   -0.95644690034589
O           0.96413831781803   -1.93341733211770    0.39934794149441
O           0.63362285659413    0.39204807952708    0.88885683237519
H           0.29936486500260    1.24351854227549    0.44211363917555
O          -0.29584414668835    2.33389606874958   -0.45622717315395
H           0.33514293177654    2.39583006187170   -1.21762174250857
H          -1.11036385139626    1.97802927568938   -0.82176236173661
O          -0.43892139688603   -1.63659060451023    2.63544869847732
H          -0.14234958692034   -0.77165302054621    2.92958816439154
H           0.20182126540385   -1.91137742557517    1.94989430643214
O           1.44350552939881    2.06705035160996   -2.41480876017079
H           2.29384749950363    2.51083942521582   -2.41738220402993
H           1.61489329267907    1.14994447826277   -2.11533788430374
O          -2.26050282217624   -1.46273704390440    0.75495702263700
H          -1.29965494497004   -0.94924421106084   -0.32070366781688
H          -2.52572546942927   -2.36336013032406    0.55432646243652
H          -1.69640570000353   -1.51760272851429    1.57253766979652
