    19
        -40.92221078
S           0.21447750977479   -1.03125465961785    0.10887983105893
O          -0.68123492514213   -0.41802999626704   -0.99298551676148
O          -0.62365541902155   -1.82321851089159    0.95196351232919
O           1.35624132393681   -1.66751108548152   -0.46915585242145
O           0.72592121324098    0.21392618650327    0.87922071886943
H          -0.09466299603652    0.77167607240974    1.10648567531886
O          -1.46246691743594    1.45557476782653    1.21696537575122
H          -1.76956325591033    1.61135992064447    0.31966329042502
H          -2.05771686806465    0.75490878971716    1.58639346889552
O          -2.78977633763128   -0.68718884115274    1.97804469411847
H          -2.84509343820511   -0.96475587851443    2.89452840480156
H          -2.09674023651809   -1.24370875330269    1.56552735783232
O           2.96761436858014    0.39458364057331   -0.92534491011800
H           2.90715585637308    0.86785551383992   -0.09172008877416
H           2.58806963363270   -0.48934301743695   -0.75002735389208
O           0.91508647802770    0.88819001955831   -2.48333060415259
H           1.08068964515898    0.41848845041786   -3.30408649642932
H          -0.09387932308531    0.11356944763130   -1.63086557407804
H           1.75953368829722    0.83487794357546   -1.96015593276991
