    19
        -40.91983380
S           0.53424427363855   -0.62007361909642   -0.40072837605065
O           0.88295764178641    0.60513821962613    0.26793861388278
O          -0.89267438820915   -0.80866977239342   -0.54662707179499
O           1.21520321297583   -0.69166096193401   -1.76645052425389
O           1.13151813701346   -1.81478621542947    0.35148523181040
H           1.11955022303982   -1.56706347447104    1.34719747794745
O          -1.36775863275274    1.57431295924853   -1.74033209073862
H          -1.36076828280379    0.66269297143217   -1.40099292675430
H          -1.73949271967372    2.11732315081323   -1.04169887735118
O          -1.75683615987792   -1.00765653041236    1.99299435408243
H          -1.58018358149476   -0.91463478397494    1.03769142780018
H          -2.25389626722622   -1.82156817752948    2.09850947568071
O           0.82611417974060   -0.83190384017592    2.65782626658229
H           1.03085301444975    0.05765532788084    2.34407356636747
H          -0.15578463108097   -0.88920561841185    2.66261356860958
O           1.25807141865953    1.79202103441288   -2.21150284081399
H           0.28049014724725    1.88667568816134   -2.25273902683807
H           1.49420373307511    1.99770152081579   -1.29860677279889
H           1.33418867155243    0.27370211136288   -2.10065146537545
