    19
        -40.91205833
S          -1.63067386310160   -0.66435150948571    0.57332447568809
O          -0.62890505759022    0.12964585284452    1.22476856505259
O          -2.80825405670977    0.00393520845446    0.13085574120821
O          -1.03678834697288   -1.45978544348883   -0.57688863205648
O          -2.07038255628003   -1.77892339706722    1.60614429733136
H          -2.95477950064785   -2.04825440341417    1.36641705258377
O          -0.72152241977197    1.56656146966254   -1.10244338382710
H          -0.72309269824378    1.27299691709180   -0.18249115935281
H          -1.61666123523810    1.42136054890287   -1.41653734980329
O           1.78376513336157    1.45066911382216    1.45180386374060
H           1.49064057477029    2.33072878591916    1.69505903626778
H           1.01142177530097    0.87202880966877    1.54456014440371
O           1.93446784798514    0.78529947321188   -1.16615838588780
H           1.06493494303410    1.14802265626910   -1.40125293352433
H           2.10750322704451    1.11366609893644   -0.26039543811678
O           1.42611202126053   -1.67295248012814   -0.65162486913399
H           1.64451003932116   -2.18329103845825   -1.43537431170595
H           1.70396840091365   -0.71221860901096   -0.85017221320825
H           0.02373577182294   -1.57513804327047   -0.54959450976378
