    19
        -40.91205838
S          -0.46069804746586   -1.69978647989693    0.57263578689614
O          -0.43907877148939   -1.95419317422069    1.97394802420432
O          -1.24631762889035   -0.58903112055153    0.11740744952444
O           0.96377363409724   -1.61347806693428    0.05141465985963
O          -1.03838638461454   -2.98797242948589   -0.14074211537572
H          -0.81562834969470   -3.73577665656024    0.40993550184183
O           0.99546783029830    2.11327735295442   -0.51396883024398
H           0.97590608320566    1.81556180871281    0.41010072983265
H           0.05877262846843    2.27901537863945   -0.74459897765596
O          -1.67854689014144    1.94399192570659   -0.88994663480441
H          -1.63249671469237    0.99106870960230   -0.71750519412574
H          -2.27489938823503    2.30710608383933   -0.23258270372565
O           0.34135215553890    0.81917085183070    1.84545906038784
H           0.58355026223314    0.16530726801668    2.50481332500665
H          -0.39478956052768    0.42918398026189    1.35720559393595
O           1.39019134019667   -0.05508317509459   -1.82134991417109
H           2.32758232921045   -0.10357331117790   -2.02478587189227
H           1.10157995163845   -0.97111306799082   -0.78917372977101
H           1.24266552084903    0.84632412231467   -1.36826615970906
