    19
        -40.91821034
S          -1.68739391870690   -1.04048357894564    0.10911839031499
O          -1.32071281533803   -0.84282901189930   -1.30369496211702
O          -0.59204368504469   -1.66459023535809    0.83620010100940
O          -2.17475089715518    0.16336237142342    0.73092500207760
O          -2.87188061426432   -2.08214326973495    0.08755887132348
H          -2.48621018347474   -2.82239623520761   -0.37089276753286
O           2.46007622662411    0.20305568435419   -0.97930159537999
H           2.17358365064222   -0.01340330732985   -0.06420757857513
H           3.16418303191342    0.85041915285339   -0.90866168803539
O           1.35159830231611   -0.10632429065583    1.43805177166438
H           1.74686678784762   -0.45060124136395    2.24074275381862
H           0.60346397658010   -0.73538295697164    1.22031187219712
O          -0.28434776175860    1.95244892302965    0.64762099256015
H           0.38232750136779    1.44622137267832    1.14336847878325
H          -1.12448222451998    1.45076336532108    0.78164483408562
O           0.14333550228615    1.10181252856371   -1.67000913418579
H          -0.51948270231140    0.25975065814419   -1.60824960570185
H          -0.04196872831971    1.60675823197128   -0.76111445665795
H           1.07783853184332    0.72356184856915   -1.56941126952548
