    19
        -40.91205830
S          -1.31492572587931   -1.27114577272241   -0.29537724706949
O          -0.82398322357459   -0.64845176753426    0.90027795414785
O          -2.56700906151197   -0.81825492742832   -0.80164139815458
O          -0.27487512280048   -1.22786201874549   -1.40198852517003
O          -1.45477404636483   -2.81451268132485    0.02114393050507
H          -2.10912321155734   -3.16589599279545   -0.57926659253667
O           0.81625257253545    0.99333026088328    2.39467546449360
H           0.17192863382784    1.52357590936886    2.86723343615044
H           0.32411070865973    0.25929969360130    1.99612319845663
O          -1.08154740220359    1.64035756544008   -0.57680553008317
H          -1.12014479111004    0.95624366638886    0.10364365164433
H          -1.78475051766906    1.42462578935492   -1.19326295502109
O           1.63893978775987    1.74310336537440   -0.07203431217670
H           1.51913152220999    1.62929770076355    0.89260232180162
H           0.74826455956479    1.92193021491681   -0.41499201568741
O           2.05043141352587   -0.69380897610833   -0.75013274669102
H           1.96056734882023    0.27861246401755   -0.45748721091702
H           0.72544608815183   -1.04516227309010   -1.07877732510309
H           2.57606046758631   -0.68528220032538   -1.55393409857714
