    19
        -40.92453817
S          -1.09751957353005    0.43643075914366    0.96285454105926
O           0.14644749028012    1.06172470867551    1.39858625549079
O          -1.47822037399049    0.91022472737729   -0.36293283275573
O          -1.05025517402608   -1.00833859787883    1.04434966226175
O          -2.22608541308726    0.90422622768281    1.96403934132281
H          -2.25549793208094    1.85252172257026    1.87643762541003
O           1.52848731460437   -1.30880246651315    1.12526921111961
H           1.73588573411772   -0.48773150863438    1.58723487345491
H           0.54626379992939   -1.38029329424840    1.21226553855929
O           1.54150733276116   -0.75396193011459   -1.33331484309329
H           0.57205076933195   -1.05165677985065   -1.59255202860557
H           1.66411229060975   -1.06693437325756   -0.34200955436749
O          -0.90408717133466   -1.25868110286365   -1.67738975009185
H          -1.25057725781138   -0.40184670305840   -1.32320275928839
H          -1.15499211091529   -1.90018442380653   -1.00255975559408
O           1.09763156376030    1.69261206293312   -0.92792852657280
H           0.84616417148487    1.59192745805652    0.02542032703772
H           1.48011713004444    0.28787953092529   -1.26999368918471
H           0.25856740985374    1.88088398286211   -1.36457364616204
