    19
        -40.92315413
S           1.13354318821769    1.12584903013645   -0.57472183324558
O           0.53322509544358    1.98738906983206    0.44727181975122
O           1.49108830357891   -0.16952886354862    0.00681769349720
O           0.32844577600463    0.98231614034747   -1.75763392783859
O           2.47815338241101    1.83629016472020   -0.98341564994727
H           2.79098284614092    2.18146360470567   -0.15306961688239
O           0.01647494650704   -1.13375271598413    1.99180729371686
H           0.74044624741905   -0.79127862417726    1.42264353950335
H          -0.26233303732872   -1.95496255757505    1.57287847718916
O          -0.15832233331089   -2.09939704598997   -0.77701427251005
H           0.08755950985074   -2.51377415499866   -1.60528000603414
H           0.53810852377955   -1.43137897399901   -0.58989775506914
O          -1.93331847158313   -0.10286016032293   -0.98677453693260
H          -1.25127915959790    0.42203010206670   -1.46405160035956
H          -1.53631564569733   -0.99915688207619   -0.94253696892895
O          -1.47975802226764    0.79851435915817    1.29279661924040
H          -1.82920339036820    0.43079070416894    0.35212389640599
H          -0.99532574524379    0.00518763563738    1.73365915640848
H          -0.69217203382264    1.42625918791484    1.01439767202105
