    19
        -40.91833244
S           0.50683179340791   -0.17091427187905   -1.64150587950865
O           1.14278623588513    0.64409502682259   -0.62526850466070
O           1.03641497622567   -1.50682330117751   -1.75638422842860
O          -0.95631379034124   -0.17257417548928   -1.48598466623223
O           0.78689275541485    0.55468716858221   -3.02141324334369
H           0.56160862933099   -0.10796943247719   -3.66732905108136
O          -0.04310086922298    2.49660901448347    0.74388573471244
H           0.49752195961268    1.92295810644254    0.14266209629838
H           0.46055040843308    2.59094173057264    1.55499799377340
O          -0.89037725058769   -1.12248018218980    2.07568633507059
H          -1.40294495783564   -1.93277333181505    2.09423775825246
H          -0.01913808209557   -1.35788476281645    1.65041059779527
O           1.35054506496627   -1.69140153565339    0.84892568381098
H           1.91260015161829   -0.91339391826092    0.90553796964550
H           1.23181803482722   -1.82311324871046   -0.11583851532998
O          -1.85522987177795    0.71918072045240    0.61668089301123
H          -1.54176653152990    0.34633170781648   -0.34470541992345
H          -1.53110284921418   -0.00795688316870    1.27060507021487
H          -1.24759580706961    1.53248154822637    0.75479937584920
