    19
        -40.91373488
S          -0.62896097345829   -1.53523965061627   -0.17644948290421
O           0.55938206921511   -1.42219942899840    0.62636905449239
O          -1.87594900954222   -1.46398121344937    0.69149469604518
O          -0.72445746736173   -0.64481631854456   -1.28605031055418
O          -0.68471061924683   -3.00540875072381   -0.72550487348593
H          -0.52636928236812   -3.60533025410305    0.00167104345350
O           1.69399500860232    2.35226652918499   -0.23907918932693
H           1.88126109001582    1.53331450485623   -0.74862885728952
H           2.54168535650561    2.69780114236248    0.04462996138842
O           0.03213099463588    1.17156691845617    1.50785618799564
H           0.60894369576370    1.72222966866767    0.93237985723231
H           0.35411427748850    0.26455521085286    1.41901886176416
O           1.96579759393307   -0.08933610137974   -1.34154830674968
H           1.11284755895401   -0.15077093496856   -1.79068200402869
H           1.85251962981112   -0.62917800110670   -0.54763210583440
O          -2.32678759324561    0.95760456030187    0.47449684244082
H          -2.13864169373868    1.07985163519590   -0.46270977065853
H          -2.20857733067867   -0.45232921984028    0.65936038840269
H          -1.48822329527810    1.21939969386915    0.96100800762115
