    19
        -40.92008989
S          -0.28750063837789   -0.14822682228440    0.74206295855122
O          -1.08467310723836    0.27351356124673   -0.39022347751654
O           1.11060528311934   -0.29170664913347    0.44492962446093
O          -0.48430152981245    0.83597290892296    1.89844727630426
O          -0.84751128526799   -1.46020797913122    1.29869968763664
H          -0.31188405191744   -2.21732928467846    0.85080751433380
O          -0.83844267153434   -1.85866417264347   -2.03454820080313
H          -1.71905812194254   -2.15804858974590   -2.27010343906565
H          -0.95024609113537   -1.00782462652966   -1.57275881825880
O          -0.10762401570690    2.75548265330849   -0.83137185300382
H          -0.84325017613108    3.37150670407041   -0.83104076949312
H          -0.49578834632178    1.86163593667762   -0.82433579483505
O           0.61391866506900   -2.97200572027637   -0.08900218548318
H           0.15781892142190   -2.77845438093429   -0.93820001677999
H           1.35510934439736   -2.35405522893412   -0.04938408100399
O           1.45134794687113    2.33129797563233    1.29543121839192
H           0.27918842238221    1.52373381828167    1.82733380620797
H           1.97772551200962    1.58564794997798    0.97953898883378
H           1.02456594012639    2.70773193617428    0.49371757152640
