    19
        -40.92007390
S           0.79479723713861   -0.32597970050795    1.10080035057316
O           1.71661685303578   -1.39007429347825    0.77198890112991
O           1.01573071462209    0.85867194562325    0.24725454788717
O          -0.59412585940865   -0.70324806798620    1.11130431443365
O           1.15255677295937    0.15340268245895    2.56900901771858
H           2.09824613104736    0.04913259562394    2.61649212548916
O          -1.21356697502787    2.22781659443703    0.88694067400080
H          -0.32083884120232    1.88177585181664    0.70020173712514
H          -1.40706560918422    1.97748880498713    1.79249061462233
O          -2.19855653727946    0.32990123197433   -0.69288842049578
H          -2.11977010110471    1.20864428202471   -0.25364291693087
H          -1.85502795374740   -0.28054471070642   -0.00252469376687
O          -0.06785019107107    0.27825696631314   -1.94253373017002
H          -1.09443344416027    0.30591895122256   -1.53414531533964
H           0.46776673571200    0.64399963062873   -1.14518923951214
O           0.78369807531719   -2.09224324666043   -1.55804922151480
H           0.20768125285351   -0.70326832226891   -1.96343907242959
H           1.50640811868963   -2.47242683387153   -2.06231390420359
H           1.12773360081042   -1.94722434163049   -0.64175575861698
