    19
        -40.91965991
S           1.38712612919924   -0.63295403668105    0.77976859924756
O           1.26729773774885    0.63987544008947    1.50795812235901
O           0.37826839463784   -1.57990025536146    1.22841455769190
O           1.38531836526727   -0.43351097265076   -0.64826540047990
O           2.79037407507705   -1.22598918227655    1.17631758968348
H           2.72265494860456   -1.32092285228158    2.12142327990801
O           0.07642638886753    1.62546198790037   -1.85314937123267
H           0.92419487016810    1.19034863212870   -1.66470130448671
H          -0.48185883152900    0.87898642025300   -2.18133610967010
O          -1.89599275528363   -0.54292985159945    0.66973982450723
H          -1.05222170701173   -1.03001182575160    0.90065586630757
H          -2.52890740915702   -0.75939785067519    1.35698649898230
O          -0.98224003493151   -0.78825342358901   -2.01782881875799
H          -0.10653125347228   -1.00092075103132   -1.65544807022475
H          -1.60180108947386   -0.90736380711664   -1.28884406255771
O          -0.70477883096253    1.73981702074191    0.51371598275278
H          -1.33292149041917    0.95011589096819    0.56913141209342
H           0.16914748106897    1.38195538157572    1.00361299042547
H          -0.41355500843008    1.81559402535998   -0.51815158655189
