    19
        -40.92071441
S          -0.85654297937256   -1.20909042945775    0.04243629470185
O          -1.24629169195170    0.12673624337104    0.53591804606840
O          -1.56142143459914   -1.55575653033612   -1.17014332477720
O           0.58083534256298   -1.31123761901548   -0.06119106081820
O          -1.32857064689053   -2.22882603615196    1.15303995482982
H          -2.22420812227672   -2.43948880950920    0.90457352035185
O           0.32409159319978    1.06683466052781    2.49700603822846
H          -0.12855992341832    1.77954611894204    2.95041767387177
H          -0.33327906530103    0.65012788373083    1.90491092592276
O           0.13455650070421   -0.24170953690877   -2.67028947658106
H          -0.59825265752841   -0.77356983416315   -2.27887191831315
H           0.92570029868903   -0.77211509286852   -2.53730381076508
O           2.02818620547846    0.81786751888486    0.46421348054595
H           1.74145914158179   -0.11360315658298    0.32138850938354
H           1.68836906207101    1.02834020055931    1.35963055815402
O           0.15003867002516    1.61544593846514   -0.93650152927213
H           0.18241610634307    1.00153659029088   -1.76279502541712
H          -0.54880610616224    1.15522805800092   -0.34201961734285
H           1.07027970691749    1.40373384201409   -0.37441924878742
