    19
        -40.91892674
S           1.32728655169912    0.42486516600467    0.33871198788123
O           0.36355558542132    0.06961531737947    1.39741889021056
O           2.20669218988958   -0.68332277962127    0.03481170208834
O           0.65377277987410    0.99079122217754   -0.80375481029924
O           2.22304810279901    1.57275251422121    0.95555442038549
H           2.83777342014156    1.11695656947847    1.52305838835624
O          -1.24467689317677    2.26174916562287    0.63679905637480
H          -1.09139779051989    1.81411335169371    1.47404490144638
H          -0.43316403549944    2.10997268291527    0.12407243244271
O          -2.02084371703336    0.53015108722590   -1.24429834236461
H          -2.09287679830526    1.26137270907225   -0.58973023317867
H          -1.14865212863879    0.67653171193891   -1.64382027120625
O           0.59588641267235   -2.41960967781179   -1.03303966157345
H           0.92667308676372   -3.29534857212022   -0.82153060927569
H           1.28882639295832   -1.77878522736658   -0.72934744532180
O          -1.31787799293978   -1.34792536205015    0.25014194887618
H          -1.73739240912048   -0.62223845480579   -0.40896713621247
H          -0.66725087443843   -1.90315980167955   -0.31189669630664
H          -0.66938189252018   -0.77848162225531    0.85177145759892
