    19
        -40.92159004
S          -0.71785635658753    1.02691442769418   -0.78038391954929
O           0.71332032408578    0.76465460978633   -0.80281130233521
O          -1.43028295473794    0.62741649098216   -1.96343125433778
O          -1.32230005700114    0.48843729082776    0.44528975447979
O          -0.84364541854137    2.60312381668746   -0.67474946749481
H          -1.71480011388583    2.79034996343216   -1.01077854103434
O          -1.45971062132292   -1.90896434156755   -1.15314347243377
H          -1.50042926154840   -1.05151491788675   -1.62011475131779
H          -2.11588670511518   -1.84900684318073   -0.45487885166048
O           1.97922201849752    1.22608935036368    1.44231290211225
H           2.91885011265789    1.09138387906634    1.30344715526484
H           1.56303788892118    1.25752399692103    0.54872533014108
O           1.01722020337199   -1.82582038326613   -0.23945983711550
H           1.16236309094217   -0.96178399462182   -0.67287734571975
H           0.15732827730096   -2.12872810537564   -0.61675487140979
O           0.33340056611416   -0.68498708765792    1.86582694370066
H          -0.45679714067515   -0.18345881818348    1.37921349505797
H           0.67406623657805   -1.32001998432688    1.07288481271775
H           1.04289992091325    0.03839066045044    1.93168320091560
