    19
        -40.92071446
S           0.53662129240517    1.13709965209489    0.78417571151097
O          -0.64941611707329    1.19437806992936   -0.09329063523033
O           0.17031216964203    1.20220500304092    2.18022370778106
O           1.36403390942426    0.00281641402677    0.44365576385606
O           1.36518931224182    2.44487167014502    0.46797873734558
H           1.00246371235053    3.09453825013045    1.06345015437496
O          -0.13124715607434    0.61383196407920   -2.66064327088478
H          -0.27797136405386    0.98042420967404   -1.76603174620955
H          -0.84512261431449    0.93957050800373   -3.21075665813543
O          -1.44832252173189   -1.18993507020414    0.01163266434581
H          -0.65787052939855   -1.54440911836713   -0.66436523615944
H          -1.31282658841299   -0.17433377815799   -0.04940506586621
O           0.52034104809906   -1.65026954162028   -1.41615636242733
H           0.36961156311782   -1.01173557601576   -2.14473186596855
H           1.09392537076268   -1.15295556638859   -0.78837833503846
O          -0.33271335104537   -1.36476621256146    2.28767141892084
H          -1.11640968653297   -1.40482899419080    0.96262505460867
H           0.55177069628386   -1.71771234231977    2.15343091384896
H          -0.20236914665232   -0.39878952137923    2.43891502867948
