    19
        -40.92158999
S           1.12472308658534   -0.94802561134245    0.12500793726478
O           1.88227221646572   -1.28411579289857   -1.04968870411260
O           1.13551565928945    0.46203692438120    0.48452846330621
O          -0.25262063051265   -1.45505447511910    0.06704221280174
O           1.81271923140399   -1.68763281966284    1.34600174459077
H           2.12440902191734   -2.50782700089206    0.97568961453559
O          -0.45819982744428    1.13839096224368    2.44879920042765
H          -0.32582656635206    2.06685415103458    2.65075256980493
H           0.29140038788648    0.86577016088136    1.86868632963860
O          -0.62061245985458    1.66647604284544   -1.12318702020390
H           0.19787899007906    1.52226616191647   -0.60858813034148
H          -0.52151931376206    1.04966297175697   -1.88696497387777
O          -0.08939829971519   -0.43871148581807   -2.62716907138271
H          -0.71723039852211   -1.15376670058194   -2.49961607513300
H           0.73906572826411   -0.74488718611319   -2.20901383252668
O          -1.92150247780195    0.31926228520071    0.51796556111224
H          -1.55487296105235    0.67773310372631    1.39442571041640
H          -1.52701118252575    0.98209607767567   -0.22604842722315
H          -1.31919020434578   -0.53052778923177    0.35137688088667
