    19
        -40.91167196
S          -0.60474653771042    1.44443464555255    0.01692118254403
O          -1.18045959711831    0.18538120389004   -0.63637273390811
O          -1.37628129094081    1.77508916941639    1.17161854147152
O           0.81148302626947    1.33612777174411    0.18152711489313
O          -0.84174641371539    2.53411119112807   -1.08824829555192
H          -1.75898777357844    2.79926442050593   -1.05565738785842
O           0.64138990321896   -1.06218910645926    1.63357605174737
H           0.81492594788242   -1.61557279165312    0.83693152079457
H           0.92898815247197   -0.17383122189402    1.39037239797614
O           2.19310960073065    0.04945734756626   -1.75464528400410
H           3.12888538234028    0.14621204695093   -1.56761262192874
H           1.72448476801906    0.62050713404363   -1.12059232381125
O           0.83429196449834   -2.11167354432050   -0.82289243878098
H           1.40556019578886   -1.45181110926613   -1.26378361563020
H          -0.04518266916074   -1.96608642153238   -1.17893983384104
O          -1.93503554950405   -0.90762981103812    1.45065620701643
H          -2.15145298805394   -0.09544937286057    1.92565672507054
H          -1.59463789529594   -0.37359838091780    0.16865406857337
H          -0.99458822614837   -1.13274318084454    1.71283072522285
