    19
        -40.92343666
S          -1.41312468841551   -0.51177771882905   -0.76629537192488
O          -0.51637795187440   -1.55111836651092   -1.22518191524332
O          -1.88231014821658   -0.75849592791054    0.59807104336668
O          -0.84317412042647    0.81897061313713   -0.90666294822038
O          -2.69210295161109   -0.54345348085207   -1.68560715755641
H          -3.03162076500444   -1.42113108825812   -1.54126649109563
O           1.80642700625351    0.92060821295009   -1.03441428683003
H           2.16775643421675    0.87271704901890   -1.92053599759337
H           0.82897023855010    0.90068566970339   -1.13444797078331
O           1.54772357861879   -1.35476786484568    0.36985767858215
H           0.83934933477484   -1.65176316580496   -0.24984389596703
H           1.93013973956028   -0.56904815845189   -0.07398060805941
O           0.26465120607287    2.01879867154234    1.20393237533898
H          -0.32250108053592    1.80084512708275    0.45033779330586
H           1.13514753547284    2.15175393403097    0.81277017219447
O           0.05618143608516   -0.35531530203263    2.09770081598892
H          -0.83728239002537   -0.57398548755013    1.60040268641038
H           0.78091439352470   -0.84335983803979    1.48115603554690
H           0.18123317298192    0.64983711162007    1.92400805253958
