    19
        -40.91836648
S          -0.88886254271557    1.75163300445333    0.17287247818925
O           0.06055104008916    1.84188935326970   -0.94763611406055
O          -2.05931666223058    0.97788343472835   -0.19826209576066
O          -0.25702736663846    1.29281254287474    1.38841566895697
O          -1.37907806993944    3.22739185017516    0.43859563902127
H          -1.89094449049448    3.41685501573486   -0.34188489494107
O           0.33074100427800   -1.19524670638535    1.65455886109163
H           0.11207553149009   -0.22362370988983    1.59000436902485
H           0.33617221288857   -1.39305227845295    2.59262604600910
O          -1.21273073466363   -1.43942785197955   -0.61965873983958
H          -1.72265441761207   -0.59967604874974   -0.49258575722780
H          -0.82407175389010   -1.63116197989660    0.25002865903393
O           2.39103183407270   -1.27489470561327   -0.05562417841169
H           1.74473598055004   -1.25354558732447    0.68469538174357
H           2.66602284480032   -2.18721742302940   -0.16449831708788
O           0.72076172774475   -0.37121880491547   -1.79843509491188
H           1.49784014579191   -0.65979663225825   -1.21514947473413
H          -0.10888652883271   -0.91342393986915   -1.43137901302631
H           0.48364023527919    0.63382047716791   -1.50668341303336
