    19
        -40.91893411
S          -0.28786746992393    1.58017475918728   -0.66361064653877
O           0.95861121883657    0.86763653528779   -0.98351843688364
O          -1.28889984371290    1.40682095356464   -1.68548394553870
O          -0.72661172174809    1.28168120235845    0.68546662703853
O           0.09392817476760    3.12117040812034   -0.66514741057634
H          -0.00309761592314    3.36479005589921   -1.58079925314508
O           0.06482731645025   -2.61080677771397   -0.58110324834721
H           0.22876712090658   -2.81034824153370   -1.50493717077771
H          -0.74852620674170   -2.03832250845877   -0.56231946335851
O           0.60981116409885   -0.04562017039685    2.46379976533984
H           0.01749935461611    0.49323903275184    1.87796876234703
H           1.08175621905463    0.57909012180689    3.01749422731428
O          -1.92006670028314   -0.89589762240444   -0.56049692747690
H          -1.78715173951240   -0.11795641463884   -1.13935430423899
H          -2.03932560331469   -0.51885489549665    0.31634225229908
O           1.74759868954965   -1.00241577744605    0.40651663244018
H           1.38043402619818   -0.73225887045161    1.32468569150378
H           1.13007511347163   -1.75301281744188    0.04768780388054
H           1.48823850322528   -0.16910898299567   -0.21319096528300
