    19
        -40.92343587
S          -0.62061942396133   -1.47741162185926   -0.52796798028207
O           0.07510894584199   -2.01492485426344    0.64204938628108
O          -1.86153543670884   -0.82576908359030   -0.16620765349903
O           0.24709773653239   -0.62376681848135   -1.32379033878835
O          -0.97918262563662   -2.71311995906956   -1.43706993039034
H          -1.54745806987004   -3.22900682598665   -0.87366458904164
O           2.26054013898074    0.68197776341172   -0.15552382876137
H           1.73991068675752    0.07530489535801   -0.72202699138615
H           1.98656991544688    1.56735736259877   -0.41928116379673
O          -1.10399620170684    1.20041878685210    1.30494014039249
H          -1.58716848985197    0.45554171811333    0.87395583906590
H          -0.81357042172981    1.75599389525548    0.55156341833004
O          -0.19053003929467    1.98456775136476   -1.09668855188794
H          -0.10274084938085    1.02903945820667   -1.30900253899968
H          -0.81458299930073    2.34354527072209   -1.72894410378361
O           0.95872820155440   -0.06437979589598    1.90043169609676
H           1.62545705585260    0.28346678789434    1.19993251702504
H           0.08719998987699    0.54563813585073    1.79177083787009
H           0.64077187659655   -0.97447284648350    1.49552383555502
