    19
        -40.91892672
S          -0.82336461935397    0.15305700151041   -1.16410468214138
O          -2.16603906063348   -0.21977460309142   -0.77399359758940
O          -0.29914615643712    1.31314316985827   -0.48697022541600
O           0.10426664364884   -0.98819369610048   -1.05116434327648
O          -0.86884942612686    0.50555537407247   -2.70493020041681
H          -1.44940558996461   -0.14876124613797   -3.08240805285626
O           1.61331366559013    1.06748136252715    1.47363140264145
H           0.84180910884722    1.56220097686139    1.15468606598464
H           2.19340955156873    1.02084710521031    0.68001454581024
O           2.28180594355277    0.80785568399535   -1.09982460030326
H           2.16716934395126   -0.10044028561959   -1.39429327442722
H           1.39055528306875    1.19345640828034   -1.13843332024784
O          -1.91812807048940   -0.67248640345568    1.77228780972278
H          -2.11674705879528   -0.42519152442717    0.83293418706913
H          -2.55186823489817   -1.35196214217727    2.01257120480642
O           0.53934380668745   -1.18911294510956    1.38278986679937
H           1.05681684482839   -0.27059501604607    1.54398851255710
H          -0.41999045146846   -1.03771003323729    1.70563034020448
H           0.42504848636813   -1.21936919701270    0.33758835107411
