    19
        -40.91376209
S           0.65979868573774   -0.64065958803724   -0.84726713892905
O           1.04704716961273   -1.50123412323984    0.27995421309880
O          -0.75615436192162   -0.81395598434246   -1.13982433524833
O           1.04745556009108    0.73148919786126   -0.62718689274776
O           1.46407714931537   -1.15627802352449   -2.09215486543430
H           1.07773985742560   -1.99385708732168   -2.33311569508395
O          -2.08610596915966   -0.28095081765406    1.02647135821822
H          -2.82134062475586   -0.89463960412594    1.08577227887093
H          -1.66778541141379   -0.43403363198542    0.13931892916904
O          -0.34592892557091    1.18006029092568   -3.02249991990252
H          -0.81153673521614    0.46929339445776   -2.56959084292120
H           0.37077619494745    1.41792037732283   -2.42684794684986
O           1.01759975952884    1.71595804069578    1.79101142913588
H           1.17700479720818    1.44576677385584    0.85386342803537
H           0.40543968202619    2.45484919567250    1.75656435915769
O           0.06733597867588   -0.56172208449605    2.33474952594506
H           0.47609370234097    0.38774998380606    2.29455384176798
H          -0.88574827739647   -0.46281881610397    1.96649039130235
H           0.56423176853275   -1.06293748374907    1.52973790241126
