    19
        -40.91464806
S          -0.51912379381374    0.84070226576482    1.11291405137901
O           0.38425850640407    1.40172475979821    0.15080589710634
O          -1.35166290938274   -0.22884937910196    0.65773707821636
O           0.24941369607284    0.46556857167143    2.37068247214172
O          -1.47291288667644    1.97547504212029    1.61950910739811
H          -0.95342015448442    2.76846720098882    1.73682181701538
O          -2.09159895909448   -0.26268296686008   -1.98513977969025
H          -1.96126685601826   -0.21925547547724   -1.02385756820431
H          -2.61118172499303   -1.05071984193623   -2.15532264070552
O           0.64539408071345   -0.07541355060504   -2.18486374283064
H          -0.29566004747469   -0.13294859064766   -2.42421514843046
H           0.68965221985737    0.65139820898592   -1.54793702693020
O           0.74730963744331   -1.84681128539283   -0.21416482525159
H           0.81282070239541   -1.35027418486672   -1.06773089565855
H          -0.12149411446910   -1.62106162805842    0.14041739716175
O           2.28908301451614   -0.46312522308499    1.31639850250058
H           1.82156735602764   -1.14443945733368    0.73838598000245
H           2.56774808128658    0.23767117170382    0.71836258759181
H           1.17107416170009    0.05457436235676    2.04119673719890
