    19
        -40.92343596
S          -1.16790421701767    1.04113397764753   -0.63065577989691
O          -0.35318982164112    2.08636367020408   -0.00944676909226
O          -0.58826040687042    0.57049941947594   -1.87072726640727
O          -1.45376368597510   -0.04084013788032    0.29824603276293
O          -2.55428100250727    1.70575652439933   -0.97467043779461
H          -2.30990077468448    2.39603071486028   -1.58317935970339
O          -0.06867711412283   -2.27255992205563   -0.08545261418600
H          -0.69299414155306   -1.51727430976839   -0.01062215293572
H          -0.48484598736468   -2.90761509504159   -0.66981427893647
O           0.24986287738934   -0.57323377499074    2.28247143458020
H          -0.54903373428967   -0.31798194924381    1.77575323615055
H           0.41372304031514   -1.49261494191710    2.04507612859309
O           1.67425440909381   -0.51929005281010   -1.13672717068769
H           1.26992349834969   -1.34399876166099   -0.79466547012582
H           0.93372596817612   -0.07763687016620   -1.61676511967043
O           1.68843715304255    0.97141637500598    0.86024460975562
H           0.90006233940108    1.57926951221165    0.53941261962750
H           1.24855787920358    0.37214847321662    1.56997387019747
H           1.84430373105482    0.34042717850853    0.01154846776732
