    19
        -40.91941573
S           0.41980238590667    0.54873180858777   -1.46305790847220
O          -0.79565745489647   -0.20893950561739   -1.78446913688655
O           0.10751636562033    1.70648855067651   -0.64478843138951
O           1.44972088875555   -0.28893268977162   -0.89076131914907
O           0.97528802135830    1.08159250466371   -2.83682067683907
H           0.27465853989152    1.64754846794120   -3.14565702222914
O           1.20780562630725    0.86904953971324    1.77196548747741
H           1.75493364675013    0.08886744451324    1.66124293680048
H           1.12761974583132    1.26515607844498    0.89079485178456
O          -1.43923620271769    1.09967660777772    1.44387155983941
H          -1.09374869652830    1.56007457798867    0.64993667249987
H          -0.64078879729497    1.00979891495046    1.99970506996906
O           0.59380294212390   -2.14916379934120    0.70246328155956
H           1.01747634959359   -1.48087718407895    0.10366890311986
H           0.77846121371291   -3.00940420946609    0.32110108988700
O          -1.70759838110587   -1.11476421092861    0.33250006684243
H          -1.70597705107539   -0.20836535925408    0.90097153636230
H          -1.44518538723863   -0.77812937322768   -0.62958181699832
H          -0.87889375500366   -1.63840817357236    0.61691485581591
