    19
        -40.92008978
S          -0.30241832385739   -0.29134347468003    0.69174701947859
O          -0.98051320233358    0.74400296241281   -0.03736616521945
O           0.92929901653623   -0.73158861957159    0.07166770829673
O          -0.01533133661201    0.17060228776953    2.12304630420718
O          -1.23047996960638   -1.49301700632545    0.89048435603143
H          -1.84713962085859   -1.52252959710461    0.06620392225934
O          -2.43383310475063   -1.25324966909025   -1.30998131669878
H          -2.37915814505580   -0.28955900645399   -1.27781259579555
H          -1.67024503351021   -1.53988283861088   -1.85915416626398
O           0.00847564819120   -1.84761400294362   -2.21209585869300
H           0.47268801592357   -1.42052168963360   -1.46925103264633
H           0.34326280666013   -2.74543861562839   -2.26197355716394
O           2.44168123285871    1.50125575338001    0.26521045835804
H           1.98520471362580    0.66236681728292    0.07139430792029
H           3.26461854392905    1.26905197011299    0.70043970571930
O           0.36395731325231    2.59217451778443    1.54095382576182
H          -0.30201789299306    2.56708185319054    0.84192278463966
H           0.12874738875402    1.18940112997973    2.07604028802671
H           1.22320193984815    2.43880721812972    1.08852401177569
