    19
        -40.91907707
S          -0.49721010419014    1.46237503943256    0.62846379375952
O          -1.71125359701558    1.92110290800854   -0.00526413486219
O          -0.68693094246217    0.15165898995307    1.28524574750887
O           0.65637113223332    1.43779325113797   -0.24118788999165
O          -0.17295996507717    2.47292757551943    1.80292841086433
H          -1.02297024821601    2.75608217339536    2.12968956027117
O          -1.04307131681151   -1.47008748980678   -0.55880449330623
H          -0.09997783608570   -1.89898222389381   -0.65001939695767
H          -0.97584862149772   -0.85313164039020    0.29460146405851
O           1.97712398614779   -0.43389780313947    1.06943277611533
H           1.21969907033110   -0.45850525914144    1.66869743401023
H           1.79286531045219    0.35452971197320    0.52165257590578
O           1.33752956912094   -2.31564979336369   -0.61709935914245
H           1.52919927665562   -3.16882631250785   -0.22359987124280
H           1.72410387780223   -1.62183581335501   -0.00717575707833
O          -1.11830938108101    0.50487167160658   -2.13097112175211
H          -1.56952122651915    1.12125467218658   -1.51153763657854
H          -0.20257108580821    0.81262903373742   -2.12811171414757
H          -1.13626789798250   -0.77430869134887   -1.32694040742919
