    19
        -40.91062384
S          -0.82435030525138   -0.72040428457381    1.01000144235241
O          -1.10932338577448   -0.86649246389676   -0.43319748922075
O          -0.28793400078534   -1.94212505522622    1.56195731615366
O           0.01482776420404    0.43306638680011    1.25382907534568
O          -2.20974700781766   -0.43607561320553    1.69093816940792
H          -2.74973872315544   -1.20150835741770    1.51250199081344
O           0.83853918318615    1.92667518280820   -0.68955470386829
H           0.44857789969622    1.51457752111508    0.12496485108850
H           1.49422470573141    2.56221122423108   -0.39776597450490
O           2.08167533818371   -1.45827977228850    0.59974116623477
H           1.25615336056995   -1.82372650156052    1.00524275038615
H           2.37246982053998   -0.77320692624627    1.20796975440867
O          -2.07538275845432    1.61719458229785   -1.29373246931786
H          -1.90738357157294    0.70486688884744   -1.02659796604051
H          -1.21895751280382    2.05285026977094   -1.31359618327118
O           1.06999415751242   -0.48368167235413   -1.50714521626419
H           1.10887217002787    0.52301155510501   -1.37107026255719
H           1.62501018600976   -0.91326200452207   -0.74429353092607
H           0.07247268993965   -0.71569095968255   -1.19019273021651
