    19
        -40.92022138
S           0.17426416277000    0.89552042161306   -0.12899586821318
O          -0.95416857348532    0.36459633470926   -0.84971138632480
O           0.91677591951067   -0.10900033540964    0.59617638374238
O           1.12577447749757    1.64849265222533   -1.05844463155450
O          -0.30928430897683    1.99316149434941    0.82474137489796
H          -1.25971235488573    1.74036133731289    1.11760022252845
O           0.39762499421788   -1.56476000158482   -2.15401377843476
H           0.18928072536941   -2.37522946609721   -1.68432698019419
H          -0.22065627388710   -0.89065063640459   -1.81885801172405
O          -2.55326295441009    0.95864690204273    1.36285011747746
H          -2.71846106267017    0.67635559762986    0.45557012104950
H          -2.17526653199567    0.17214708029253    1.81700193445018
O          -0.98136791420672   -1.00764688275848    2.26796565635478
H          -0.23181363497932   -0.80646181722423    1.67552415800023
H          -0.63535281410931   -0.97796538130907    3.16250659441608
O           2.67210840030010   -0.28388348748159   -1.57909778323741
H           1.97432266155732   -0.84817365884258   -1.98270163547350
H           1.85121082448649    0.98861922671404   -1.36152448172014
H           2.73798427789365   -0.57412938977265   -0.66226202605093
