    19
        -40.92217262
S           0.86420601315021   -0.92318314268633   -0.55396671859134
O          -0.31382716445310   -1.20238161874902    0.24800780849062
O           0.85392359853230   -1.45795548244281   -1.88527671720352
O           1.20283903946737    0.50508102410504   -0.50773015465939
O           2.05654193931689   -1.65064911406024    0.22599752161020
H           2.64176139310536   -1.95757662273171   -0.46020351889628
O          -0.91018504238975    0.51106171053883   -2.39037944534237
H          -0.36794986768739   -0.29678513164281   -2.35673380794151
H          -0.29099650757240    1.22754809088805   -2.54879050483788
O          -2.22160591199900    0.65612907418936   -0.06621307968080
H          -1.91501692168768   -0.23960669697023    0.16051908776413
H          -1.98029471685513    0.73864248575520   -1.01516679603910
O           0.28686443018326   -0.24554504681199    2.60543757134826
H           0.03173662837755   -0.79813586106697    1.83119464145887
H           1.21120541488052   -0.43737195632160    2.77525843198477
O          -0.26702057909765    1.72351317663238    1.06451704962604
H          -0.10776936042175    1.11845215484807    1.86349872192559
H           0.42083066077503    1.32704153363191    0.36763832147650
H          -1.19524305545344    1.40172142277930    0.64239158729507
