    19
        -40.92343662
S           0.79457075787298   -0.06067615165537   -1.48674232548876
O           0.99008597179016    1.34024773048682   -1.18035208778992
O           1.74531928315948   -0.91364202725551   -0.77183469759224
O          -0.57845356709823   -0.49158716452076   -1.27626846738936
O           1.08995512165276   -0.26085738724528   -3.02124581107387
H           2.00021108613612    0.00824920649784   -3.09557843158024
O           0.44460215318075    1.51327987777386    1.37213199604599
H           0.78365326764529    1.63628790949411    0.45346341994565
H          -0.52835003208260    1.48145066213983    1.25828381866498
O          -2.00325238478801    1.00869918645500    0.38743356042961
H          -1.54838304912395    0.52458348881185   -0.33672518989527
H          -2.48283112685010    1.72579196289041   -0.02949673786059
O          -1.24254482703418   -1.76089170184242    0.97519399153153
H          -1.92349528143224   -1.14007640387743    1.25691227163383
H          -1.07654394896016   -1.54646415892289    0.03359826674078
O           1.06136598419938   -0.88880432578901    1.61569306502282
H           0.84991053277433    0.15824509615759    1.66342555502368
H           0.14716276828131   -1.34869467720074    1.52123963390968
H           1.47701729067727   -0.98514109239756    0.66086816972238
