    19
        -40.92217263
S          -0.82701893388043   -0.67650423585866   -0.87413962819561
O          -2.20166009786735   -1.04266420654992   -0.68727026676588
O          -0.54649624289909    0.74855979460598   -0.86482715551003
O           0.08952762140070   -1.39666480518425    0.01886278032075
O          -0.41982106117780   -1.15147785986849   -2.34644008052137
H          -1.05170642672701   -1.83034765336530   -2.56408193848990
O          -0.05190899784548    1.66900280068595    1.60394020875477
H          -0.33372452742324    1.77841951191202    0.67834384466030
H          -0.72278089699237    1.04946637412216    1.96689955802395
O           1.99260063443760    0.89555914142478   -1.46918011553361
H           2.17555456870724    0.23380286278444   -2.13898064090568
H           1.01181430458568    0.97153867822687   -1.42202018747182
O          -1.77400515961863   -0.35571879129898    1.87935437381699
H          -1.38881823556000   -1.17748925522724    2.19265283436291
H          -2.11796902335838   -0.55321603599005    0.99026482685560
O           1.79956024584969    0.12044932965100    0.96394165107028
H           1.13134956909213   -0.62859556373947    0.63641950788501
H           2.11746435382849    0.50089907540351    0.07845156219526
H           1.11803831544673    0.84498085826809    1.35780887544836
