    19
        -40.92071443
S          -1.30600197626710   -0.37422303069929   -0.59114285276213
O          -0.95800513457676    1.00752664646962   -0.35289130593379
O          -1.31116112875338   -0.74865446924183   -1.98664243050889
O          -0.44791311210914   -1.26976164348730    0.20984722176916
O          -2.77488083290156   -0.59699904556976   -0.05319487123849
H          -3.10347283233044   -1.31964963440815   -0.58053219416255
O           0.00487639164115   -0.39529232883196    2.70527104637796
H          -0.29692847716497   -0.78239720471806    1.85952617298372
H           0.30681036676725   -1.12472417598327    3.24851877243313
O           1.08461212405761    1.53251353287118    1.21564575598403
H           0.81186642918599    1.02876903523529    2.01126120318976
H           0.25138551334640    1.61349740758619    0.69679739058437
O           1.83007425614181   -0.30947530993244   -0.26062246562768
H           0.99570091755322   -0.87190273162567   -0.05683759901946
H           1.67166539441936    0.54493018505246    0.41066806484740
O           0.90864339411032    0.55389754110456   -2.46505046954464
H           0.08479889137730    0.01150636647414   -2.47853475588779
H           0.61010764440886    1.45703308632199   -2.32295542566433
H           1.63782216120648    0.04340576338500   -1.20913126780708
