    19
        -40.91793117
S          -0.90080744207452    0.92578870008408   -1.19112386566039
O          -1.12092487299453   -0.52775762967516   -1.11893341405447
O          -2.00168256380641    1.66625324074395   -0.61911044543360
O           0.39109533393568    1.28532830249222   -0.64360370597597
O          -0.84581828772438    1.27350333155166   -2.73272602450336
H          -1.74862294746993    1.19172058958519   -3.02802673262514
O          -0.96541524926192    1.32899167975945    1.76397627400358
H          -0.09512584236346    1.62489054098111    1.47155499940887
H          -1.55704503622786    1.59171189743272    1.02307054876253
O           1.46871003900560   -1.93755329481934    1.28525661208629
H           1.54314304113338   -2.85605554336431    1.01852543200753
H           1.84892816439577   -1.40071211601237    0.53678731268109
O           2.29796581575297   -0.49775985546813   -0.73321655969718
H           1.56573308405835    0.16038261581030   -0.80009396611361
H           3.10511580855065    0.01618098130570   -0.66835966139742
O          -0.94690431730604   -1.15813918942094    1.25241923901466
H          -0.97986399292723   -0.20165836554615    1.63562559011041
H          -1.08414662489021   -0.98390596917682    0.20352341816426
H           0.02566586956293   -1.50120992585108    1.34445494929322
