    19
        -40.91597492
S           0.38890452643093    0.88739629151234   -1.55632371452059
O          -0.11585690351190   -0.49947716495591   -1.54982999086278
O          -0.71116145156615    1.83025833715630   -1.45743831714282
O           1.43423330402325    1.09028081479610   -0.59170361367356
O           1.02753156531140    1.08495960146520   -2.98832122114190
H           0.26937660882295    1.03638915431244   -3.56232109742154
O           2.31971068041230   -0.74765509533090    1.03969891416974
H           2.82950201623543   -0.22552874395996    1.66229809923902
H           2.01310264570083   -0.10669444077994    0.35451651563850
O          -1.82928898787078    1.50935425364403    0.84350685074996
H          -1.36288485512168    1.76014692120080    0.00050057871393
H          -2.70075624092885    1.90821873441064    0.79432497537146
O           0.19693162055869   -1.95890859727119    1.94342847358905
H           1.02545716763483   -1.48524911529698    1.64852830051004
H           0.34372018666054   -2.88732964451358    1.75166382814255
O          -1.54416214783237   -0.97162857373618    0.39237650064255
H          -0.95555715496415   -0.82576824720832   -0.49866554034540
H          -0.88629492648674   -1.38658576561431    1.07761159155267
H          -1.74250763352786   -0.01217872983800    0.69614886678657
