    19
        -40.91058105
S           0.53523205068288    1.76487103704866    0.60343696470663
O           0.97400303941809    1.71290110730221   -0.85409156969433
O          -0.89512801312393    1.87600339878939    0.68238340425356
O           1.13921651931507    0.71852600520059    1.36250379978653
O           1.14998961783331    3.12656136271043    1.07348845436051
H           0.61627392849302    3.81009634477232    0.67488635902606
O          -2.02941782942898   -0.19832289555883   -0.52448629630381
H          -1.72187778363136    0.56578194155408    0.00486720287483
H          -2.93979990030834   -0.02223402244502   -0.76877712040297
O           1.45140235299216   -1.73030102770970    0.35856631071713
H           1.36646464735210   -0.89897475032334    0.86662750327926
H           2.31326951045077   -2.09600943382418    0.56440864784255
O          -1.25540343588123   -2.72782806730138    0.65233060967523
H          -0.30400369806655   -2.57539983392169    0.64998773412421
H          -1.65370154327137   -1.91208574737049    0.32820524855669
O           0.33651318981883   -0.50690701816210   -1.74217796728546
H           0.79507942664254   -1.12700141963430   -1.13445186991626
H          -0.61011466124746   -0.54549123278650   -1.49133778723796
H           0.73200258196190    0.76581425166188   -1.30636962836231
