    19
        -40.91930872
S          -0.31258169507715   -0.41820696967645   -0.70649575453530
O          -0.47595029667821   -0.67009284921046    0.79800501145817
O          -1.07029802154851    0.76278913627880   -1.04189471954933
O           1.06907293025747   -0.42178681348811   -1.05662074692531
O          -0.99477470545940   -1.64068523711663   -1.37356189630595
H          -1.97029805998659   -1.46215710540964   -1.36858782749823
O           0.25842510515226    2.14939734649480    0.90986246510229
H          -0.21725674304377    1.81702795872367    1.67460616473514
H          -0.24321757231126    1.86175380250868    0.13296051019323
O           2.70985129863462    0.96863596242204    0.66632672583808
H           2.49962799165792    0.63264026846237   -0.21589121824037
H           1.99808960653947    1.60680288850387    0.85797267415821
O          -3.35256473206464   -0.54491847303918   -1.36202608335039
H          -2.76864196043368    0.21779075144134   -1.19594258312470
H          -3.76467503479016   -0.40049719570474   -2.21755617029342
O           1.79181403307429   -1.23183234969251    1.70034787135227
H           0.43241702261936   -0.95008809346979    1.23196770836610
H           2.15875365637665   -1.90186354861428    1.11800716564561
H           2.25220716707660   -0.37470947941219    1.44852071295436
