    19
        -40.91892621
S           0.12893865566149   -0.60948462311852    1.29209634153340
O           1.08382382618296    0.18776303345810    2.03158047606096
O          -1.08414756325467    0.08266426931182    0.93317521363501
O           0.75134373224898   -1.23120615640976    0.10834039588750
O          -0.29110293734301   -1.81369758296320    2.22698037980455
H           0.51620441667838   -2.06937767954066    2.66351815910492
O           1.59290703683613    2.13974778679920    0.39416798640819
H           2.49955452798333    2.41756577665439    0.54203132455108
H           1.38050466463923    1.48785457391517    1.11035305715899
O          -1.54389918872782    0.89352241034911   -1.65262492582564
H          -1.82355967191826   -0.04652719375374   -1.73201115237956
H          -1.67168421706282    1.08289206355762   -0.70936743100111
O          -1.81588330405465   -1.67813886309524   -0.98005076363929
H          -1.76993502192884   -1.22506132952649   -0.12142376110958
H          -0.97888779217789   -2.14590092555383   -1.05395610386892
O           0.93895942426614    0.61880815158760   -1.53361360750559
H          -0.09678123648256    0.80345035363168   -1.70827356881185
H           1.25335855409511    1.34512963085562   -0.88462141890712
H           0.93028608435413   -0.24000368635809   -0.92630058096850
