    19
        -40.92217098
S          -0.07733560264766   -1.32198802687366   -0.39272815895239
O          -0.49953206127788   -0.76424289596794    0.87956238261861
O          -1.10330807152490   -1.95855603629371   -1.16744123310725
O           0.70210406025300   -0.34336348232716   -1.16233631414325
O           0.97565550324638   -2.45882095729588    0.00475768275601
H           0.87804848727788   -3.12557880125468   -0.66876712837850
O          -1.34959765015302    1.76988569767642    0.64762525763959
H          -1.74153652803637    1.55210561778402   -0.22686568222080
H          -1.32077508658918    0.90611260411754    1.09548450285984
O          -1.93792632930535    0.55249708734211   -1.65749634448518
H          -1.82741984600136   -0.40302586749134   -1.50701332654016
H          -1.35407125876572    0.76534155592289   -2.38946725781098
O           1.72559822816109    0.04305969786653    1.98848534803679
H           2.40502128747866   -0.60636363133800    1.79708693955831
H           0.86832920825260   -0.38380458247579    1.75888344938218
O           1.09785060345638    1.71395931643450    0.15163149150770
H           1.48504509010001    1.25640835544965    0.97041714775409
H           0.99972932632640    0.89796181348523   -0.51234947812327
H           0.07412064974474    1.90841253524395    0.39053071165031
