    19
        -40.91505753
S          -0.77112639512123   -1.24755984630746   -0.34396422905662
O          -1.36111140271033    0.05585950162241    0.24242786456088
O           0.66036753970187   -1.07782168852577   -0.49041637672649
O          -1.18646512025379   -2.36483279911759    0.42067632397084
O          -1.39403350108617   -1.26479959422328   -1.76243308754537
H          -0.95016585536130   -0.54157728314848   -2.25822982960625
O           0.48924267013872    2.19694067972591   -0.08283038348569
H           0.65208771233652    2.08537478585753   -1.02456229541594
H          -0.37885557624576    1.80904774039135    0.07684739284192
O           1.59648192585650    0.33547898083834    1.65732562424562
H           1.41756514145426    1.19683653953799    1.24097495593947
H           1.55270794178089   -0.29952838288413    0.92596390011409
O           0.41989649790063    0.52046019058582   -2.53626163001014
H           0.95220919675161    0.32424835647842   -3.31067267248676
H           0.79530560534692    0.00507640828354   -1.79164645554259
O          -0.73030144971545   -0.34054444246223    2.61984815448715
H           0.22180321748684   -0.06889618805565    2.47733351477229
H          -1.23139741787377   -0.02251412914554    1.27555275459058
H          -0.75421072037956   -1.30124883941929    2.66406646434637
