    19
        -40.92179444
S           0.82611652421372    0.37734534597437    0.31844883272719
O           0.68905325854458   -0.88800842757761   -0.57314378614649
O          -0.50104332113422    0.91763946135565    0.53601347862232
O           1.54254972729447    0.06452606609267    1.50833688656308
O           1.62443759027341    1.32081724445853   -0.57447214180430
H           1.22724695868154    1.26163587885636   -1.52153283444710
O          -1.87093246756054    1.40247107568792   -1.69346779326274
H          -1.49688746634295    1.20035502359008   -0.81139356347861
H          -2.25284792718547    2.28004597785156   -1.63143999903411
O           0.47991401022254    0.95334870949823   -2.79867906854130
H           0.52900247661802   -0.00529921145986   -2.85914935826796
H          -0.45685858163692    1.16225166393082   -2.55615977812473
O          -1.01790697857910   -0.77591391109534    2.58225027835700
H          -0.42157692297969   -0.42528019495051    3.24887643779465
H          -1.04260060759177   -0.10291999306156    1.88105479233636
O           0.46865995386473   -2.57507709126422    1.30342759844042
H          -0.21110306892329   -2.08475800476259    1.82673543818932
H           0.58052378190372   -1.67652057232546    0.06412376436543
H           1.30425304032549   -2.40665906079500    1.75017079572794
