    19
        -40.92136401
S          -0.98493828622495    0.93422379481209    0.27915994528135
O          -1.85615484979944    0.79882353875932    1.41995552546444
O           0.41815812646177    1.15731130009944    0.67057629736218
O          -1.08646706693203   -0.14362060203187   -0.67871228973654
O          -1.41522939020597    2.25944646896891   -0.48209767917762
H          -1.77185968070051    2.81824088688606    0.20262055895990
O           1.57443216129747    1.18524713961786   -1.75203518927702
H           1.23524100130338    1.33230109782973   -0.84904283534862
H           0.96280177542477    1.63081737941515   -2.34073542766543
O           1.31770450956316   -1.15099950809041    1.06368662934727
H           0.43814613922420   -1.53387940764929    1.42157740183697
H           1.11087765887640   -0.14542969692419    1.02960051904446
O          -1.08687759894397   -1.70473333496103    1.71519499578947
H          -1.54343935936621   -2.11604030434059    0.97594310066914
H          -1.45842657067007   -0.79548623489807    1.77503415259677
O           1.09353500069077   -1.41094605935295   -1.39019165654140
H           1.55335578951208   -0.60839209139070   -1.72204023089125
H           1.34211502037986   -1.39475396389898   -0.00308271845275
H           0.15702561987392   -1.11213042268028   -1.33541109921671
