    19
        -40.91855617
S          -0.39033429672718   -0.34173582338368   -1.04389942694303
O          -0.18993358888157   -1.05684325827428    0.20147181219530
O          -1.40271258803705    0.78190728207137   -0.81368131511988
O           0.80354470785671    0.13696538536396   -1.65782089334700
O          -1.13705122060850   -1.26668241001540   -2.02633316234200
H          -1.81099423549962   -1.74558836134068   -1.47966890952946
O           3.00870694250079    0.86556469351527   -0.24234331819070
H           3.70798862160704    0.25724843341477   -0.48725600089087
H           2.27684393607496    0.70562810822771   -0.86371729881231
O          -2.42338283717324   -2.43525329723659   -0.09495381318955
H          -2.31811963574012   -3.38643690577880   -0.01357471539692
H          -1.66697204412446   -2.02413559214814    0.36390252745268
O           1.23380662644164    0.65797809815857    1.78758488030854
H           2.02365204040097    0.81549148169222    1.23357577453269
H           0.79699060481980   -0.11337250808633    1.39190313379226
O          -0.51394391642866    2.35908020830109    0.92939867757526
H           0.22074537046200    1.80422923318071    1.33568767119267
H          -1.05272515331281    1.48692775024508   -0.14023060579491
H          -1.16610933369915    2.49902751210871    1.61995499245444
