    19
        -40.92217282
S          -0.60665432931732    0.15435744172127   -1.23083628753129
O          -2.00723862795912    0.27541188134285   -1.51773013715420
O          -0.03870521166412    1.20220504321279   -0.40111498915173
O          -0.23326397929800   -1.17347439209664   -0.72678019624007
O           0.16332856899609    0.29240566708523   -2.62625163993155
H          -0.48564419475885    0.05893403362981   -3.28334156009781
O          -0.22752918915229    0.63880872781116    2.21422743862447
H          -1.10101397454581    0.21699029218581    2.05679437941291
H          -0.14426528905901    1.25537257690865    1.46542107919322
O          -2.34199591271028   -0.49566639120722    1.03838281469344
H          -2.27994646201180   -1.44631578827088    0.91863592870662
H          -2.39548070893734   -0.12424209312318    0.14001073036387
O           2.52035638761194    0.66919864515282   -0.36902895481646
H           1.62469841156592    1.06791703081244   -0.46255639775633
H           2.77228243805121    0.37385310121003   -1.24610339144227
O           1.34145397929173   -1.00157556546054    1.17277446622341
H           0.67720085003165   -1.21407369004667    0.37957793644447
H           2.01811286222188   -0.40478845111270    0.70818492490264
H           0.74430437991052   -0.34531806745002    1.76973384552875
