    19
        -40.92052672
S           0.00939802148992   -0.82851773302770    0.13887538519570
O           1.19072756380585   -0.00467894993287    0.20572579726296
O          -1.18990666626380   -0.09832933355212   -0.18853185707919
O           0.24434424084942   -1.96297936054397   -0.86249039919709
O          -0.20342328211179   -1.57904176621302    1.45662830361670
H          -0.81807243577338   -0.99293806539346    2.03531493804983
O          -0.61007416302296    0.80185571959696   -2.65610731038878
H          -0.90487973794296    0.60870848184956   -1.74609579450771
H          -1.34166722197220    0.57249734671291   -3.23286152415824
O           0.58144334438389    1.63893683391135    2.24630752086107
H           1.31710609722222    1.63029312761230    2.86215309530010
H           0.88401418518005    1.16574114371042    1.44832082918775
O          -1.62810473303355    0.18439602905249    2.56790799150018
H          -0.90919656233482    0.85397581583910    2.63027074045138
H          -2.10966053929556    0.40018681335838    1.76059472043414
O           1.63310825514875   -0.62686143473312   -2.49324005609453
H           0.89932880849868   -0.03050579128803   -2.76746536564689
H           2.10721931390031   -0.14890262357077   -1.80261638273411
H           0.84829552130496   -1.58383624340241   -1.60269064206656
