    19
        -40.92343663
S          -1.10194478810178    1.27154017045074    0.12096543329637
O          -0.10863231425320    1.91080089076894   -0.71538787058579
O          -1.97629614150400    0.38604381582180   -0.64946631923756
O          -0.51416553648759    0.58736198403985    1.26187520693246
O          -2.02745363318813    2.40107956898470    0.71222528499532
H          -2.39585032153526    2.79990840904307   -0.06988716247564
O           2.04203025108153   -0.08023783605344    1.00162022430179
H           2.66295009673618    0.58151548723727    1.30919458969018
H           1.14535158273503    0.27985325159118    1.18073739244517
O          -0.12227237439656   -2.05082813613122    1.17440122666903
H           0.82736771218848   -2.02810697192513    1.33612517088699
H          -0.44351796222164   -1.15819555248018    1.41967536990444
O           1.34939340493753   -0.07544374115858   -1.59361592256928
H           0.87086577507563    0.77736456200622   -1.45997178932794
H           1.85394829669289   -0.19153849793198   -0.76137836555291
O          -0.60635343598272   -1.58730213334452   -1.28121979758078
H          -0.43082773926206   -1.96355137305679   -0.34117723956895
H          -1.29879982148533   -0.82352234107139   -1.10745825843108
H           0.27420694897011   -1.03674155678906   -1.53725717379199
