    19
        -40.92008981
S           0.60938040228350   -0.50809663641472   -0.16412943426306
O          -0.67546762354815   -0.51253402941596   -0.83086970816034
O           0.73235604725257    0.50173396409371    0.85014630961492
O           0.87827432281409   -1.89234254944380    0.43264729957645
O           1.72232542678683   -0.35160407289271   -1.20400143743811
H           1.93340514624943    0.65528144890824   -1.25387222948754
O          -0.62233305865734    1.88062873248356   -2.08777534010981
H          -0.79746725574713    1.73339393308292   -3.01953872759677
H          -0.79668090174928    1.03460167194516   -1.63679995226654
O           1.83630977323271    2.16225379582900   -1.08243098265413
H           1.63798364810654    2.16261785998104   -0.13719977003387
H           0.97338100178923    2.30962825348130   -1.52987154540081
O          -2.32174002291433   -1.21291287753124    1.19615531517464
H          -2.83522874645540   -1.97353172215191    0.91609567241135
H          -1.85346762040218   -0.88932127062182    0.40513000892532
O          -0.11705852385633   -1.39541466503853    2.69302379253193
H           0.18675280651002   -0.47902078931810    2.66740050181369
H          -1.04721514513467   -1.37103364562120    2.37551421378344
H           0.55649032344014   -1.85432739135165    1.41037602358339
