    19
        -40.92079121
S           1.13827568494957   -0.31809918679420    0.90064452637773
O           0.62353515098514   -0.83236281231700    2.14352548191674
O           0.71312245277049   -1.06249636536316   -0.27665251743433
O           0.88466313802019    1.11470521329892    0.73752502806490
O           2.71223939622491   -0.47891047751583    0.94253835937494
H           2.94987261428549   -0.09710595651817    1.78172649639980
O          -1.93466805548178   -0.18391354160436    2.00308736923104
H          -0.98241801607510   -0.37460449975706    2.14720235315154
H          -2.41467852963769   -0.74315337936228    2.61684615771234
O           1.06650226655360    0.15740202974996   -2.57134902115744
H           1.11770530046607   -0.38779553519928   -1.75090335040495
H           0.76953093482654   -0.42825730918962   -3.27066880242818
O          -1.84879385669036   -0.41112196833594   -0.62140920451347
H          -1.01683567385351   -0.92352567950694   -0.56571457703821
H          -2.11422018974536   -0.29029704301827    0.32053471021781
O          -0.54008838547292    1.62324085956439   -1.22182870953071
H          -1.25238321476940    0.85351294174386   -1.02713141354896
H           0.06108630111361    1.55984944263904   -0.35844815939410
H           0.06755267151090    1.22293325747293   -1.92952474699248
