    19
        -40.91892632
S          -1.26654027195334   -0.03587074181061   -0.67356413621572
O          -1.49799088790726   -1.41643667130901   -1.04044124410764
O          -1.20473588963158    0.12591462006967    0.79139193653738
O          -0.12456202212339    0.57308213564597   -1.30914045461478
O          -2.53692745655152    0.78633934686607   -1.13241621167445
H          -3.27581577725438    0.22752160245619   -0.90989253872169
O           0.06703516230488    2.62100894832291    0.43997981938001
H          -0.15414726167744    2.12154379977220   -0.36385294834547
H          -0.51680910197756    2.26509138475998    1.11623574607923
O           2.19477517943968    1.04326348377408    0.09390931414337
H           1.67709291617690    1.83300345442188    0.37133090727765
H           1.80304173552106    0.81190313731985   -0.76316447996627
O           0.69804123957205   -2.58937187632824   -0.29913156109490
H          -0.12390086937429   -2.20405924086067   -0.69788728966645
H           0.47847128789428   -3.48785321974344   -0.04305086685342
O           1.03620352207824   -0.73995409360033    1.41018345850459
H           1.03901747999494   -1.56207656078812    0.80025795133980
H           1.64528668970627   -0.00916291158470    0.92837717870609
H           0.06246434572591   -0.36388660734099    1.28087541924053
