    19
        -40.91868600
S          -0.58528610310911    0.57582491308434    0.43890064806563
O           0.65020056804491    0.49753333167053   -0.30565875883934
O          -1.00072124218233   -0.85541058426207    0.84144481237806
O          -0.54249309370396    1.43118127543815    1.58284576154279
O          -1.72707868068226    1.03014799511730   -0.47216208139398
H          -1.81343666294253    0.41133569336097   -1.27286846603312
O           0.78472907505709   -0.07395865871530   -2.89155267671780
H           0.86008080977670    0.09447761980160   -1.92890247656117
H           1.20454265495324    0.67114452840756   -3.32550512132997
O           1.25638957703556    0.45995368596390    3.31449928512035
H           0.82345876476593    0.39056584293306    4.16768148613217
H           0.65297270886338    0.97332566665524    2.74251419476390
O          -1.82145148614143   -0.41823467135359   -2.57351828498899
H          -0.86660279741746   -0.41915103595817   -2.82332134003350
H          -2.29780024031280    0.02903238384026   -3.27685846209664
O           1.34694557363133   -1.51903398663113    1.53660829560244
H          -0.14168110533176   -1.29824468683954    1.15138701450554
H           1.75863590962831   -1.06890217983864    0.79056511061455
H           1.45859579006337   -0.91158712267986    2.30390105927509
