    19
        -40.91873759
S           0.82122752503223   -1.49862723128259    0.10867976704144
O           0.78639055007715   -1.04541196357370    1.49240802748729
O          -0.50019709640346   -1.46549117399129   -0.49248877047091
O           1.79476959231445   -0.77220058418937   -0.69742069994347
O           1.30899676597253   -2.99641701957244    0.14735027053233
H           0.87667627140825   -3.34117574021679    0.92239727520487
O          -1.31137077874833    0.64354441153740   -1.93813059578437
H          -1.08632966311520   -0.29844990688882   -1.81105669673379
H          -1.90373428232758    0.82288613054186   -1.17188274839313
O           0.37465122095136    1.48502616129837    1.44488988514760
H           0.53938626223027    0.50330669173653    1.54940812676251
H           0.95806591038682    1.92336192088743    2.06721560217292
O          -2.15906348200533    0.46752032366252    0.56321614025735
H          -1.71277000645469   -0.38479905105547    0.42454806884554
H          -1.58941596071412    0.97283710867755    1.15278781685867
O           0.86241973244193    1.49267578071758   -1.08146468538816
H          -0.08270339516227    1.23185486774731   -1.54546674123478
H           0.65812511350381    1.68627992148701   -0.10825344183341
H           1.36487573059636    0.57327933248138   -1.02673658053372
