    19
        -40.92179447
S          -0.83485425221394   -0.07493069961768    0.47375231335090
O           0.57681140223284   -0.04061491893632    1.12237191538409
O          -0.67349336279320    0.08302147833958   -0.95788311040744
O          -1.52767375244321   -1.25486657336843    0.86697892874920
O          -1.49221622487365    1.17129894831315    1.05672235636564
H          -0.80263234884051    1.93326955575703    1.01546235520991
O           0.39945387836566    2.83827257628285    0.86665806936543
H           0.59523925571927    2.78034051400664   -0.10192849757838
H           1.10092736122253    2.34939504436090    1.30719871212717
O           0.70904795586958    2.23874993205031   -1.68221147088290
H           0.22809629477440    2.68817917060281   -2.37975002826286
H           0.25282050149378    1.38450091953851   -1.53768293274350
O          -0.15759888456459   -2.54537059999431   -1.34058072139814
H          -1.02487645791015   -2.91776193864005   -1.16058387902954
H          -0.30178580197772   -1.58726028868081   -1.42129673416334
O           1.02263733071895   -2.53282569823341    1.04453586808384
H           0.27553828446221   -2.83317340518819    1.57147261442403
H           0.75329204361912   -2.67333717876830    0.10426373115892
H           0.90126677713441   -1.00688684782077    1.15250052024964
