    19
        -40.92120089
S          -0.84094470029023    0.46121490413231   -0.06780595110545
O          -0.48533637114498   -0.77039219764378    0.80951200560757
O           0.37691261813409    0.88192098770474   -0.73224083334831
O          -1.92687092264360    0.14544003704257   -0.93206425775765
O          -1.25937799093125    1.51689444528167    0.94884667395646
H          -0.49410957751152    1.73803780915406    1.59335279277435
O           0.15816923675525   -1.04010294363022   -2.62161839598399
H           0.39955873158009   -0.29461510856778   -2.04545231264265
H          -0.49599068114929   -0.69155455659751   -3.23200285006509
O           2.21755031207282    0.31496870263128    1.11894555217934
H           1.71715032365540    0.52400813391137    0.30671505764458
H           1.96133971721255   -0.57815093127355    1.36281418904588
O           0.73810249360286    2.04383482581120    2.42737285431278
H           1.06571824197245    2.92173153004950    2.21739383345752
H           1.40666489089592    1.40011332856209    2.07279173843865
O          -1.15847535207907   -2.55153847753626   -0.85830158153735
H          -0.73572635446095   -1.59463732597474    0.26302198787529
H          -2.04662326469436   -2.22781947632258   -1.04192988447188
H          -0.59771136097735   -2.19935370673273   -1.58935060838034
