    19
        -40.92267747
S           1.03388688122274    0.23573708426835   -0.09599247175611
O           0.87804287385863   -1.05713221186914   -0.72274510609704
O           0.67829885445378    1.34013742644163   -0.97475933985978
O           0.23350651738475    0.31060164404206    1.15158907071692
O           2.51956660757181    0.38973483674155    0.33321137696936
H           2.54703930582834    1.29653071442024    0.71189614681452
O          -0.85256735624169   -2.83202879286303    0.09022328975946
H          -0.11515782583558   -2.30097387813288   -0.30028277783405
H          -0.46815460576373   -3.34350571370897    0.80481779418817
O          -1.59199195046992    0.29145915010615   -1.75975005689322
H          -0.77988457618105    0.82155462999438   -1.57665088648825
H          -1.30224398696231   -0.43076836368111   -2.32396938975007
O           1.67648816547610    2.75668205789506    1.08691482375604
H           1.03828327409232    2.41842203864726    1.72334150282354
H           1.24428810819065    2.68179519977238    0.22103207638364
O          -1.97214605672476   -0.60638497362126    0.58601456241901
H          -1.70261349612732   -1.58769859435806    0.46199229552353
H          -1.05186203027147   -0.16012729768143    0.95357042058048
H          -2.01277871349253   -0.22403493642168   -0.37045330126255
