    19
        -40.92343663
S          -1.19993972839910   -1.17834343720578   -0.12976722859073
O          -1.43687261513756    0.24868334474296   -0.28030834498215
O          -0.26756799276594   -1.69265535317455   -1.11011765055935
O          -0.79986705137386   -1.51940547546136    1.23616391816294
O          -2.58707884671998   -1.88439858796209   -0.37309787908977
H          -2.37860831842054   -2.80475607356872   -0.24639858890492
O           1.95889779619387   -0.41958830322036   -0.59558371831999
H           1.68336874080868    0.41867117959553   -1.02231831768774
H           1.26457639319080   -1.06309587002981   -0.87466224132416
O          -0.14442492253203    1.98199934161076    1.28373667299039
H           0.26957178501375    2.48639900076217    0.57481746224069
H          -0.84584623991790    1.45597283688117    0.84629261775160
O           0.46270560606904    1.59254578351822   -1.55872782222090
H           0.34126617349560    1.65473659595587   -2.50709539905389
H          -0.31547124745207    1.10170041793094   -1.21341675307371
O           1.19262468996159   -0.13133958461316    1.75789345756724
H           0.38057408237988   -0.78573084901227    1.68202465966827
H           1.67124663561894   -0.25720468034268    0.80997286055485
H           0.75084506997241    0.79580971356829    1.72059229490529
