    19
        -40.92217138
S           0.68387622016414    0.98741044703677   -0.67977422486951
O          -0.01743480843822   -0.08503999982607   -1.39636947411748
O           0.22200802947283    2.29941921834840   -1.03214984734873
O           0.74889470560896    0.70273462284449    0.74318286302585
O           2.20143907494011    0.88586426977837   -1.17565695868789
H           2.28461225319004    1.56792184500619   -1.83545392407435
O          -1.56087810004045   -0.27738902363507    1.68544849941855
H          -0.70829265825576    0.18238310107514    1.78526393376910
H          -2.05863638659841    0.31056521921969    1.07540855347242
O          -2.19994079807230    1.36530527760432   -0.32289488957991
H          -2.43981788229278    0.92959579525117   -1.14420255376455
H          -1.39930225299937    1.88021131061697   -0.52716469756112
O           1.84688822395078   -1.66661919818888    0.86284762003709
H           1.60651453852601   -0.71521728314001    0.94710446746916
H           2.53003174000099   -1.70920047604598    0.19088571839853
O          -0.58549827200058   -1.95765300483190    0.11719117605465
H          -0.40646005325966   -1.23396853948576   -0.63011403758731
H           0.35013389839338   -2.09521413276384    0.48557797322659
H          -1.09813747226862   -1.37110944887312    0.85086983268995
