    19
        -40.91842149
S           0.46673825228183    0.84860500961127   -0.62575039302750
O           0.45590719287173   -0.51515006986562   -1.10431762913999
O          -0.13003761705707    0.83184031821780    0.82409553905465
O           1.72983430723576    1.49953432848468   -0.62386296379956
O          -0.58527372995866    1.66331090943645   -1.37470792457885
H          -1.31520587676253    0.99767714996876   -1.65842720722223
O          -2.73699467675213   -0.07588962654375    0.78257988301052
H          -3.36166701227857    0.58399698394618    1.08978505363414
H          -1.84819070398638    0.27842120012166    0.95008608283051
O          -2.15703664508230   -0.25536661314740   -1.83481200305893
H          -1.39369064785640   -0.85024043671035   -1.82555179180522
H          -2.57581031311148   -0.33811257527176   -0.95128847475837
O           2.91702212292127   -0.93033965379162   -0.05261138337086
H           3.19565452587069   -0.02764610039683   -0.24680107694464
H           2.13461147885811   -1.06420587111299   -0.61230673442076
O           1.47299237967754   -0.64648413193066    2.12012837474716
H           2.15692986450109   -0.80054038043332    1.41417717979396
H           0.50176510522540    0.30100275577917    1.42792879344316
H           1.07245198340214   -1.50041320637270    2.30165667561701
