    19
        -40.92078061
S           0.76742230484014    0.46326928499257    0.53057148550982
O           0.40955407966058   -0.91672100981085    0.78615388033033
O          -0.07746318017549    0.94889484162546   -0.68584081096018
O           0.57591462581685    1.34308453550836    1.63304306741079
O           2.19105320180032    0.54516597162679   -0.00416552136395
H           2.18974617904077    0.18499827017816   -0.96562706249380
O           0.50309698127186   -2.39618498727118   -1.43136799334062
H          -0.39531198026138   -2.66805166119741   -1.62744600542169
H           0.48449897915828   -1.99877338461086   -0.53840230167009
O           1.86122574697948   -0.31558363657553   -2.36248820765049
H           1.14405594939446    0.26715213555333   -2.63053898200298
H           1.45148605848140   -1.19293963769427   -2.17886625789952
O          -1.87880517102751   -0.32793914613877    2.07927468929819
H          -1.09299069172352   -0.71123187755534    1.65081471939345
H          -1.60431095818529   -0.10916223347987    2.97281281206715
O          -1.98915445143322    1.92351633884568    0.65535459326207
H          -2.18075351698223    1.10547662340992    1.17250420880285
H          -1.44753160489824    2.46789666043878    1.23697980366813
H          -0.91173255175452    1.38713292215216   -0.29276610693997
