    19
        -40.92217270
S           0.65776380164409    0.05592697124791   -1.21296167189996
O           0.21986516721526    0.67758901805884   -2.42961861671273
O           0.94779930254733    1.02046945240984   -0.14403809906229
O          -0.17479314579190   -1.02759790834347   -0.72139477247794
O           2.06441276532231   -0.63722333787467   -1.52913246822493
H           2.40052924004596   -0.16630676138359   -2.28600989383981
O          -2.13363726053047   -0.15236497069245    0.88844514432385
H          -2.22625981764586    0.65232228898455    0.33216957713727
H          -1.74182949962874   -0.79865458046610    0.27483008527658
O           1.14580440469309   -1.96215308926993    1.33193049141182
H           2.07934002218258   -1.95417799283115    1.11175777272273
H           0.66471210983497   -1.82142176446932    0.48410184490838
O          -1.67433821088866    1.79766935555052   -0.88043713739486
H          -1.12471097597990    1.41258099217785   -1.58570557257023
H          -1.17223996965343    2.54346721976481   -0.54339494884483
O           0.05290774570155    0.24707262525602    2.02784775564939
H          -0.95259490805728    0.09192877115629    1.69966780204681
H           0.48744934884606   -0.66981754100446    2.01273208694091
H           0.47981987015528    0.69069124157943    1.16921061058890
