    19
        -40.91833182
S           1.05789269095750   -1.31162298374119    0.37805687027124
O           1.59968435992576    0.00565706656084    0.74729425619755
O           0.48132896983826   -1.99234845473618    1.51055710973889
O           0.18628412693759   -1.21694595078788   -0.77629235179178
O           2.30597300718598   -2.17025015924942   -0.08604003782808
H           2.72110223947379   -2.41544189359058    0.73534055868641
O           0.21117513226829    0.71940826936012   -2.49694406848717
H          -0.66276546024890    0.73351789072228   -2.89249849581779
H           0.26805960661988   -0.11949794292592   -1.97164387317112
O          -1.86490589942242   -0.88887344495351    1.06112796648878
H          -1.05594257408835   -1.31662002760450    1.41412615235221
H          -1.94417621783694   -1.24684288148057    0.17237474752698
O          -1.65467327358777    1.71192911140341    0.84032839558848
H          -1.78146125514463    0.72663626002801    0.92848362404279
H          -1.69021472912921    2.06335525734107    1.73189032784818
O           0.59057804796729    1.97246229504012   -0.31853241817992
H           0.45548981720251    1.62671976324294   -1.27362582324211
H          -0.33396171957425    1.96018502880799    0.13547146451865
H           1.11053312067522    1.15857278644635    0.16052559536142
