    19
        -40.92246918
S          -0.68114690966328   -0.78222631753149    0.26409440818848
O          -0.51847726331383   -1.38490298105629   -1.03847841453739
O           0.69712171492893   -0.50389878246435    0.85821888439231
O          -1.49111976600660    0.39788252509246    0.29179555185174
O          -1.26611906814701   -1.82388480504674    1.24260691628654
H          -0.69085106927715   -2.61948254033183    1.11581882544325
O           0.06751539574750    0.97204249209724   -2.21797609831916
H          -0.13807605466261    0.04502451136362   -2.00761395963306
H          -0.76066543034161    1.45108870681028   -2.13361608625336
O           0.58367900837335   -3.41422817131502    0.34156266707437
H           0.34873929324543   -2.95677439980741   -0.48222071589145
H           1.41537068955758   -3.03362625120179    0.63757541044320
O          -0.56823698559317    2.84350264692841    0.92270673588072
H          -0.72650745648724    3.01633861862667    1.85225061461907
H          -1.06532663318245    2.03270456939026    0.70296456848791
O           1.53631709072917    1.60264098978189   -0.10640079400605
H           1.18901104989003    1.48234188696688   -1.02354909651724
H           0.92401461449474    2.25388725877818    0.31120860600397
H           1.14475777972423    0.42157004280077    0.46905196645323
