    19
        -40.92079107
S           1.32009416289034    0.02424755391356    0.68281963950239
O           0.88066776513950    0.87573269398713   -0.41395088161695
O           1.16135488589742    0.61206718851713    1.98794340596033
O           0.71847688442167   -1.30724897097987    0.58914570246038
O           2.87145869575814   -0.18209493866388    0.44691567638059
H           3.15751218636641   -0.62463675664798    1.23985705362337
O          -1.78225270655773    0.84114410354231   -0.29572215495816
H          -0.85753320356389    1.14632047056079   -0.39397214226306
H          -1.90120596408465    0.76076221928772    0.67976651555999
O          -1.46177288477381    0.57192420297955    2.30657170651375
H          -0.48103342773546    0.53527631439144    2.27916081293221
H          -1.68617112051355    1.20992009653767    2.98663332676954
O           0.53624836225815   -0.33228850772872   -2.71638461898889
H           0.85486108266030    0.16481968656864   -1.92618543382510
H           0.26229278695771    0.32414547208668   -3.36006461119901
O          -1.10338999233095   -1.42427782465234   -1.08264935726965
H          -1.57388135166942   -0.51657334126589   -0.77876041849825
H          -0.55248278362868   -1.15656539571957   -1.89222058508714
H          -0.36324337749201   -1.52267430671446   -0.33890364599412
