    19
        -40.92246896
S          -1.05242584627294    0.02802235481935   -0.19549784881327
O          -0.00629854719885    1.07814358069935   -0.55975217972888
O          -0.93102204300586   -1.09058289619651   -1.10126426363990
O          -0.97285950679023   -0.30318007912769    1.19509046084849
O          -2.38127486316471    0.76665401008327   -0.46683767520149
H          -2.38256959783670    0.90270312677751   -1.44736908953880
O           1.23369741162769   -2.07719963192260    0.17516586348665
H           0.47059632478042   -1.91485477427636   -0.40548087816399
H           0.86786851621691   -2.33067163928987    1.02625935345659
O          -1.67447608125325    0.69825939555782   -2.96854142392100
H          -0.89926865649424    1.26356790894133   -3.02908118997244
H          -1.35726714672426   -0.17536520773170   -2.68720056518919
O           1.00452376717872    0.50936380525693    2.82543607263870
H           0.73309924697726    1.30093286100508    3.29323999272139
H           0.20684046497059    0.16017034704827    2.38436106471259
O           2.14232031635961    0.39624091430876    0.43432858483875
H           0.98898957357808    0.83979379833151   -0.15589560942962
H           1.95153927162275    0.52561263036618    1.39361469044479
H           2.05798739544635   -0.57761050467529    0.28942466048095
