    19
        -40.92246923
S           0.39969598656635    0.09221853600372   -0.98797160325932
O          -1.06321618708467   -0.06809768912747   -0.58224060322405
O           0.81852326686210    1.44640985170187   -0.71063745752196
O           1.20495100910261   -0.92881055657074   -0.38908287231813
O           0.35211081217403   -0.12817964020121   -2.51559562492285
H          -0.16572597072375    0.64556716734742   -2.85228287156458
O           1.08379959602173    0.97666808391169    1.93518394786348
H           1.07797562197752    1.34929105286226    1.03693046116747
H           1.81297165754956    0.35187536416188    1.95622001234886
O           0.31952260876738   -2.63025088175982    1.49551884816389
H           0.78557326913151   -2.11929792942373    0.80672498087813
H           0.03109501767059   -3.44536251186274    1.08157106055684
O          -0.98794750733012    2.09860166349962   -2.59439196284822
H          -1.82147909329678    1.91231848473180   -2.15320990329686
H          -0.34957086688569    2.31857729776961   -1.89640728628258
O          -1.14618851928174   -0.44985539211420    1.85091828171765
H          -0.74915475873334   -1.35104866746276    1.90955857433257
H          -0.41771772605714    0.16441658451219    2.11196751147583
H          -1.18521821653211   -0.23504080791416    0.49722652671135
