    19
        -40.92246924
S          -0.18789874625992    0.80774821770677    0.67722024990182
O           0.33935153679210    0.03085492290771    1.77497006121037
O           0.80647590821500    0.77119416580507   -0.48020119892570
O          -1.49429139988349    0.42543896248815    0.23331203393717
O          -0.19972946082904    2.30252435450641    1.06494816568033
H           0.71224579185031    2.46542764966242    1.41398944183235
O          -2.01888947456228   -0.60120036075394   -2.19561613255514
H          -2.29753992043490    0.09987576518124   -2.78707397766801
H          -2.00698763884910   -0.21821139167477   -1.29781214701029
O           2.25633154306164    1.91756103015988    1.82737878597204
H           2.74761754125452    1.73279130692661    1.02195989340704
H           1.86516751762087    1.07521790588092    2.11104558556905
O          -0.31906526661795   -2.31949141954354    0.62138657460886
H          -1.27886649712707   -2.28473562478015    0.62485202584774
H          -0.02421828546862   -1.60582721561080    1.21271719491934
O           0.47909965852955   -1.34092572987422   -1.70602974483971
H          -0.40580811975586   -1.18335573762907   -2.11285838371637
H           0.72765496120501   -0.15049165498929   -1.07511808146652
H           0.29935034124905   -1.92439515642876   -0.92907033666653
