    19
        -40.91505799
S           0.22920880990206    1.04217066126122    1.05819243379178
O          -0.30672279046959    1.29561160684900   -0.37002683567632
O           0.49203663622898   -0.37506926230083    1.20447222163125
O           1.31696829016726    1.90511828691946    1.33692867318859
O          -1.00780263982008    1.38681960346327    1.92474766305587
H          -1.65486154214353    0.66393200320674    1.76639891146750
O           1.55398540921742   -1.30533185852032   -1.13938974097941
H           0.68071817912415   -1.47838013439236   -1.53254661525350
H           1.37479804668987   -1.19790654239791   -0.19261910353750
O          -1.19429240329045   -1.15148601160760   -1.52248796617466
H          -1.77251367326344   -1.43856379771052   -0.80917725402240
H          -1.13443797879811   -0.19290174828713   -1.43687672411394
O          -2.03898555247416   -0.99031867741026    1.32860783399083
H          -2.31568781331593   -1.55900277833286    2.05080602113130
H          -1.06292541315745   -1.05747077529525    1.26798945033381
O           1.88550596524565    1.24797168815551   -1.55230739414206
H           1.93790417862936    0.24923751531962   -1.54460192197752
H           0.54212684171592    1.38104007846943   -0.97239926110932
H           2.47497743988035    1.57453015262567   -0.86571037159437
