    19
        -40.91864560
S           0.45335878537816   -1.05685302899058    0.25931963304420
O          -0.08482701953187    0.15165661330831    1.10061365615684
O           0.41248394901758   -0.66364052161158   -1.12961943369808
O           1.71862237822311   -1.44077996894191    0.78033915522673
O          -0.61082310042362   -2.12477775825949    0.50770794632184
H          -1.35757027558441   -1.95906465507092   -0.17830330630794
O          -2.61714085381751    0.80029468964399    0.22078471130353
H          -1.72374102051409    0.72154998688751    0.59230899145515
H          -3.22620908317194    0.79685233394933    0.96189658984227
O           2.13144828144692    1.40512919417448   -1.16233929027839
H           1.58286793883856    0.60913512465927   -1.29402087919502
H           1.74560375711252    2.09691947979139   -1.70345032461710
O          -2.22153554097609   -1.38161169121370   -1.28899281118749
H          -2.57724767669900   -0.56860131023788   -0.86889103641919
H          -1.47123120441517   -1.09081543104944   -1.82499641770412
O           2.16218583655427    1.20404493749109    1.49362971967022
H           2.32073251384688    1.46429769048342    0.55845450686976
H           0.75557015199464    0.68273533237528    1.37609864941344
H           2.60745218271893    0.35352900259504    1.59945994010862
