    19
        -40.92008987
S          -0.53549417154431    0.60610460530381   -0.01227526318995
O           0.52357304304876    0.41682777399634   -0.98066438721895
O          -0.56972890064020   -0.39908024428355    1.01331309060688
O          -0.40957981793712    1.99745667807267    0.61477338156922
O          -1.88319347664151    0.66866948966713   -0.73681683058645
H          -2.26614914650882   -0.28709166961437   -0.72037434535214
O          -2.38394709632987   -1.79441138824253   -0.56039891074304
H          -1.69802421075578   -2.06914855667038   -1.20883440995680
H          -1.95864771542548   -1.85697143458359    0.30446274460243
O           2.71550821736568    0.77674696710029    0.56123078874781
H           3.26106704803230    1.45237744538478    0.15331372666765
H           2.01827067573681    0.55803172705130   -0.08347601749999
O          -0.24366987647307   -1.89435196431981   -2.15581366386658
H          -0.28321657030983   -1.75055521722973   -3.10358304577624
H           0.17746642131115   -1.10303499468013   -1.77361557533431
O           1.01634965546545    1.27383812591726    2.56187445982244
H           0.13278806024707    1.87704913419277    1.48187944318088
H           0.56594717035257    0.42163898617983    2.62281223902091
H           1.82068069099690    1.10590453678571    2.02219257540159
