    19
        -40.91505822
S          -0.53106523283255    0.95019147620548   -1.02875360223463
O          -1.28974578805106    0.39853040962753    0.07532053949121
O           0.90598109054214    0.38243112933177   -0.96763368641321
O          -1.08343130155729    0.75367096708298   -2.31804614670441
O          -0.29014106594769    2.45182476619125   -0.73464957953919
H          -0.04078621673156    2.50119601120855    0.21519235855907
O          -0.07316581405811    1.87273172242560    1.84991337520493
H          -0.63866235195229    1.18928175217529    1.43300961050008
H          -0.62550559177520    2.35551784293438    2.46905663814267
O           1.40316347960991   -0.71163462466392    1.61146367923781
H           1.63535912530177   -0.35246249065838    0.74719325480622
H           1.14512776437526    0.04602882172137    2.14486037624018
O          -0.57620639089538   -2.22562603312810    0.37639607616469
H          -1.10855191209056   -1.41536273603753    0.36332278785721
H           0.16937650947659   -2.01518207678615    0.96501784134072
O           0.42011157244329   -1.83073413754559   -2.00141096758137
H           0.85896023376481   -0.53984895484362   -1.45663683893174
H           0.03104791794862   -2.20701030423502   -1.16049727467148
H          -0.31186603757825   -1.60354354101230   -2.58311843147211
