    19
        -40.92136395
S          -0.27124325010943    0.46348901914776   -1.27769749580513
O          -1.62260188544553    0.63392830421489   -1.75053270800979
O           0.06611499368188    1.27963068297059   -0.13330831315968
O           0.06001488903578   -0.95074920046648   -1.02877589321563
O           0.69528367215347    0.91064597249338   -2.45538519758986
H           0.19615033242189    0.73318317920783   -3.24763350539891
O           1.05291617644095    0.12085649168441    2.00011624933528
H           0.74282719817238    0.80268432476597    1.36131698862015
H           1.82365631029292   -0.27189200839890    1.53400180036468
O          -2.51929275212629    0.40984034095002    0.71749903645646
H          -2.36920806278659    0.48246761530489   -0.25243040485906
H          -2.24946968750114    1.25876661163643    1.07890785206471
O           2.54767437415934   -0.67823161711675   -0.05699873235294
H           1.71824395713654   -0.89125455348270   -0.52477342703130
H           2.95944896252216    0.02893469098844   -0.55652424715346
O          -0.79030057840639   -1.37672087077492    1.29224059976405
H           0.00932718037593   -0.79784165928520    1.76344561523858
H          -1.59132209777152   -0.74327116885549    1.21571707510558
H          -0.45821973464009   -1.41446614498816    0.32081470498208
