    19
        -40.92079023
S          -0.24880419293537    0.68342446552081   -1.29629953599003
O          -0.47961654703826    1.52396968958582   -0.11959455918612
O           1.01318938813374    0.95893650631271   -1.93288880417579
O          -0.46836690262643   -0.72271670790981   -0.98723787847204
O          -1.38877137519721    1.05995192261194   -2.32754250273442
H          -1.16368406889783    1.94683790247748   -2.59093337145430
O           2.73050469048733    0.57768842284036    0.03917737606332
H           2.13528504332394    0.81467889378988   -0.70480390633331
H           3.59521573208853    0.42868006163984   -0.34792572916340
O          -2.40553689364613   -1.21519109039063    0.71104319180132
H          -1.82351022607907   -1.06467055249577   -0.07092826054088
H          -2.47033056241472   -2.16554226294187    0.82465771486847
O          -0.69641707586557    0.21486628347967    1.97004503208430
H          -1.49728524844273   -0.34237058620899    1.69017579407373
H          -0.61707937706052    0.89799682740613    1.17119459747856
O           1.12813461120440   -1.23454886807761    1.08557683929903
H           0.13971878294358   -0.41821705081094    1.77597798957625
H           0.64412378098531   -1.31851740797749    0.23912844099162
H           1.87323041109728   -0.62525645877144    0.87117756184162
