    19
        -40.91855624
S           0.53507678748691    0.00426985283458    1.03382024065464
O          -0.06923501756727    1.06176364917297    0.24710809223545
O          -0.53508015545943   -1.03452029350322    1.37521784870660
O           1.68734352529767   -0.59438455969383    0.44626862024249
O           0.90217691774900    0.57206022676895    2.41980330294258
H           0.15192228721524    1.16978956734589    2.66940173814729
O          -1.10623483384611    2.21980884719059    2.38274308115321
H          -0.99792576431979    1.98692456807686    1.44162477729225
H          -0.90292488389031    3.15477200737974    2.46601301935738
O          -0.55152101362454   -0.06218821936083   -2.20026062989348
H          -0.42116041403487    0.54336915818388   -1.45286780991755
H           0.34776964647951   -0.34693512567489   -2.45723757185809
O           2.05236313392408   -0.79076670738347   -2.24174769380631
H           2.02322656635070   -0.84984750457459   -1.27064717442584
H           2.81369732317632   -0.24904371163880   -2.45595088338890
O          -1.46108919565905   -2.00174012426940   -0.75209216100857
H          -2.42020679294950   -1.95756768771901   -0.75287128379985
H          -1.14164129492235   -1.32640062842531   -1.42613647767367
H          -0.90655682139270   -1.49936329473611    0.52781096505070
