    19
        -40.91893435
S           0.19270054567689   -1.72013153307149    0.13755712970347
O           0.69029635714971   -0.84447725660488    1.20962607835578
O          -1.11824841434194   -2.24258981672230    0.42881438443193
O           0.32830526473368   -1.08508668873014   -1.15856272233064
O           1.17806431186009   -2.96456819249012    0.11695370163987
H           0.80161972762876   -3.54640921063944    0.77031646132304
O          -2.13980704304871    0.00692808618954   -0.49905897227065
H          -1.94550385322947   -0.85130630080212   -0.07041731763669
H          -1.66515551934617   -0.03484721398164   -1.33468083119369
O          -1.39364644532698    2.09824949418406    0.89625225981166
H          -1.77872335396188    1.98254532776793    1.76713486122438
H          -1.75254195655557    1.35895751788412    0.33530080638286
O           1.57024236675740    1.13638849119665   -1.64151589880738
H           2.46643047426618    0.92990100832724   -1.91308572640489
H           1.08953171986932    0.27034449945642   -1.58475541479806
O           1.07413475353900    1.55277263395048    0.81267461694750
H           0.09741479709052    1.89423380217750    0.86436035831358
H           0.97248304705195    0.51202703455033    1.04242143532289
H           1.33240322018635    1.54706830729528   -0.17933521999492
