    19
        -40.91893409
S           1.02844514231311   -1.26530417640281   -0.59946992351735
O           0.22319833658769   -2.46003749768796   -0.62110923164836
O           0.51876860515859   -0.23728792049013   -1.51959396860673
O           1.27228897249208   -0.71048837797691    0.71753105781847
O           2.45287061250677   -1.67364481721678   -1.16937508039372
H           2.24336029756752   -2.35280187865653   -1.80341022542328
O          -0.33921509223940    1.91002068812458   -0.67971419896982
H           0.06155524997249    1.01877384989822   -1.11626225608067
H          -1.27946130582668    1.60679759125710   -0.36759679960057
O          -2.52440418746271    0.88497860141842    0.07406157532801
H          -3.07408270196977    0.58865189086166   -0.65405132708105
H          -2.18247817691778    0.06127569980410    0.51498834898425
O          -1.42458602742563   -1.27877763781494    1.06838155717047
H          -0.97112605847279   -1.84282943466801    0.40937280007666
H          -0.73480717678030   -1.05423859716945    1.70011892989906
O           1.17501665647553    1.79828677470975    1.35377779001555
H           0.22829308082880    2.02939293299864    0.16591525268536
H           1.26440108768739    0.81831134119399    1.22599911012963
H           2.06196267547982    2.15892098781641    1.30043656921574
