    19
        -40.91892054
S          -0.09261433371446   -1.06283043519575    0.49206119168443
O          -0.41768462326279   -0.28525410643960    1.65649442373439
O          -1.03955978153337   -0.64198024785040   -0.64793079463671
O           1.26547938725110   -1.00252373842154    0.04373886119228
O          -0.47548494845945   -2.54214437583247    0.74349074306858
H          -1.40265678156053   -2.50555363007136    1.08777964956353
O          -2.77000642675026   -1.60524909178941    1.54208781034252
H          -3.18097242863310   -1.22984839485002    0.75832680737523
H          -2.18655061916071   -0.91781959886578    1.90099986023514
O           0.95390983171063    2.50133227208148   -1.27644485645566
H           1.18484287592356    2.23921840331263   -0.35586993923024
H           1.61342804787748    3.14122527151109   -1.54983632331095
O           1.63695891127945    1.48720323615190    1.10675786753683
H           0.85875682975572    1.27377819980003    1.63669645594151
H           1.93913115125798    0.62595170026404    0.78646722882587
O           0.58658132514212    0.12607573220031   -2.38389181303739
H           1.31322814408694   -0.34795149283519   -1.95950667768646
H          -0.47466463867213   -0.32745810632975   -1.46655762697686
H           0.68787809742089    1.07382841317500   -2.11486287816398
