    19
        -40.92003339
S          -0.79346412683181    0.26553121460746   -0.27258375961459
O          -0.01304260824927   -0.86039289245670   -0.72836632485349
O          -0.16027626233647    0.99298985482805    0.79816028216104
O          -1.09333987003824    1.19302711303201   -1.45251152639350
O          -2.19739505047203   -0.18308097323361    0.13882254799797
H          -2.15541849132735   -0.83883979055412    0.92118322845957
O           2.02760360871110    1.92898281165101   -0.43255726069799
H           1.29365777169034    1.62511397181945    0.13565302416495
H           2.08424710121761    2.87970083806619   -0.31745386870928
O           0.72632993437340   -1.51654243897028    1.77567768150773
H           0.87017067036335   -0.61056470149117    2.06730729501744
H           0.67815399341366   -1.46216632351185    0.80514633824243
O          -1.86784266380286   -1.88759648791118    1.99774301804873
H          -0.87957958880027   -1.83397757916779    2.07957718327246
H          -2.06934592653412   -2.76962117626320    1.67560330300152
O           1.08677089011927    0.81252814078209   -2.66853172693441
H          -0.29239915138145    1.12146323956918   -2.09071392895084
H           1.63653153693756    1.26784427085888   -1.99183014932804
H           1.11863824295117   -0.12439907165244   -2.44032533638898
