    19
        -40.91205839
S          -0.50716038361384   -1.61869726329332   -0.74420900070413
O          -0.64487412171392   -1.67885228413647   -2.16077326637717
O           0.96667254500212   -1.56981572535216   -0.37941390964464
O          -1.24467354440047   -0.59976195035946   -0.05396360134916
O          -0.98857175558019   -3.00592516566864   -0.15598974048730
H          -0.82996668248898   -3.66510082919613   -0.82865208922764
O           1.02800983228802    2.05034955334355    0.68300045041128
H           0.12298466943997    2.15875473783267    1.03963982525379
H           0.90401216775121    1.88002821029842   -0.26490268856786
O          -1.58206366404185    1.76186506621116    1.33456115066627
H          -1.54705413601001    0.84252397668590    1.02893490880049
H          -2.25372028346134    2.19539712418287    0.80484101222583
O           0.11744177502430    1.06952397126539   -1.74079705148425
H           0.28648796532415    0.51777579559883   -2.50760922346232
H          -0.55232183120285    0.59775677354457   -1.22959148855744
O           1.59421113790305   -0.26441924306732    1.62527613048596
H           2.54947180976360   -0.31601052408483    1.71041516369730
H           1.38575443746612    0.68590066644680    1.32027113031684
H           1.19536004265951   -1.04129287022105    0.51896229806183
