    19
        -40.92008986
S           0.31169121988790    0.56545041122911   -0.48637470754378
O           0.19236632277850    0.78323984140696    0.92854113273070
O          -0.17032905888345   -0.72855065250761   -0.92062756598873
O          -0.42376755417933    1.66704765547912   -1.25480239159365
O           1.76724835983496    0.74136768590041   -0.92784301044072
H           2.34999040145433    0.44463608592463   -0.13217141695664
O           2.79004624273227   -0.16516848929267    1.18862224112780
H           2.08374941513443    0.20526428095028    1.73330053670571
H           2.52721841797666   -1.09717160089816    1.01893685616011
O           1.59503469453983   -2.37934324655944    0.29181766427522
H           0.86000692992026   -1.90548451703084   -0.13805746436089
H           1.97807365383728   -2.95103058771915   -0.37674711102103
O          -2.80982140103016   -0.52238263569653   -0.37186016199433
H          -3.29801714373603   -0.71968221893655   -1.17384559234025
H          -1.87962805591870   -0.75077825075785   -0.55145796336856
O          -2.27055229890065    1.96679810959068    0.43218389505179
H          -2.70863884500045    1.10903573899300    0.23455528731121
H          -1.67525091773538    1.78639977856717    1.17101759411440
H          -1.21942040271361    1.95035262135600   -0.66518780187491
