    19
        -40.91205824
S          -0.81990551038959   -1.63033558229709   -0.31969634901043
O          -1.05101865331861   -1.99402867139679   -1.67738889294894
O           0.66004446317929   -1.76539289783982   -0.00364039803629
O          -1.32855674045926   -0.36221087058161    0.11770003211337
O          -1.49526524930282   -2.73036557816278    0.59431575516159
H          -1.48018748868538   -3.54978116568850    0.10394107457875
O          -1.17621230889111    2.28321770973459    0.89249970441002
H          -1.31683244928517    1.32677314369091    0.82077126097894
H          -1.79075177756315    2.69158795565626    0.27992842994350
O           1.40127722766259    1.93393890690678    0.14822519855030
H           1.19280561854349    1.57131404861501   -0.72810077720320
H           0.55123525956864    2.28454582340536    0.48390530710220
O           0.18937603326655    0.59304566481281   -1.94911041555254
H           0.21418312082856   -0.14358309221002   -2.56364060608592
H          -0.51716072910053    0.38139951489272   -1.32579448199423
O           1.62113941918214   -0.15800107030333    1.61183427693756
H           1.55896088679433    0.71560495679897    1.08992824121484
H           1.02971855898102   -1.08929429671029    0.73429721350939
H           2.55715032910653   -0.35843452932711    1.69002542630831
