    19
        -40.91205817
S           1.40554203868903    1.08091098292531    0.53469075561025
O           1.68899577865550   -0.39906406899739    0.72822176302466
O           2.26128068676604    1.60028641528624   -0.47878317036128
O          -0.00167196954498    1.32384657515874    0.39646330775891
O           1.84541194192061    1.72549961093885    1.91052895653625
H           2.77597864565478    1.92831061009381    1.83982396750121
O           0.35285343941881    0.07994132068052   -2.01500904794559
H           1.27054916237420    0.26586451595876   -2.22537983946556
H           0.12680376496328    0.68761286421574   -1.29936663088845
O          -2.63193316137582    0.66877800926078   -0.12460418273864
H          -2.85938178908866    1.32320686720641   -0.78766437214872
H          -1.78662822678892    0.95119467052764    0.25685286443796
O          -1.48038526537074   -1.65938495726154   -0.88279756367667
H          -0.82828921196554   -1.24956402960948   -1.47419295378090
H          -2.10568049861857   -0.93995659132673   -0.66060153409047
O          -0.22101585951535   -1.84602687103576    1.34126882399554
H           0.85378514451298   -0.98408871687290    1.04230233062619
H          -0.77920979573521   -1.81343790917732    0.48869996525219
H           0.11299518491072   -2.74392929797731    1.40954655038136
