    19
        -40.92267751
S          -0.65185739576934    0.76054857988205    0.35887104121086
O           0.61685899737440    1.00805726149304    1.00521595783849
O          -0.72121824865277    1.30994648978612   -0.98704434781872
O          -0.94317340411514   -0.69435303703538    0.32186817907137
O          -1.77035425216274    1.40372498577534    1.22525900048021
H          -2.58425174022257    1.22243627615337    0.70470260517487
O           1.59484056023036    0.34625737642669   -1.74768278043547
H           0.71682039357372    0.78062660968638   -1.62774681860040
H           2.21633583503012    0.88928903147456   -1.25487813536343
O          -3.28449212994586    0.52251952687855   -0.72729991229420
H          -3.06063855503590   -0.40396559082933   -0.59223499132565
H          -2.54535374672773    0.89719335814861   -1.23259887950674
O           2.26525634235814   -0.89917369902813    1.67766499414161
H           1.73455581789684   -0.07540689835960    1.54350770845139
H           2.01283244314226   -1.24639391877422    2.53539638850629
O           1.13322765277121   -1.77136446644437   -0.42265008504322
H           1.41489335210035   -1.03161893247759   -1.08314225910619
H           1.70118119080969   -1.60269592655668    0.41387765427813
H           0.15453689735988   -1.41562703624851   -0.11108533965635
