    19
        -40.91892672
S          -0.77499492413114   -0.96847304090865   -0.72027269476115
O          -1.76116391526255   -1.48123968798357    0.20622597261399
O          -0.96765275410341    0.47339486623633   -0.96447013774827
O           0.59281250560182   -1.25338135360668   -0.36383113373884
O          -1.03867324647445   -1.66826051334853   -2.11358997425547
H          -1.98775440008974   -1.69016764416147   -2.19395982459889
O           2.23770373583150    0.71179387231622    0.63226970917585
H           2.00259072843421   -0.22966080339593    0.64462888927769
H           2.32091843040621    0.90910513841472   -0.32817299648865
O           1.66379363994947    0.62998175365001   -1.97609025500842
H           1.36461250056145   -0.23667030486293   -1.65373283309787
H           0.85389552411925    1.11257129394785   -2.16570900500142
O          -1.12852859121335   -0.29950243681677    2.43181939893890
H          -1.37235401272020   -0.86202677784602    1.65263505430033
H          -1.93517893279056   -0.17204324153339    2.93593729108591
O          -0.07036954288385    1.56853523624815    1.07225987771619
H          -0.49274143421668    1.22761680807362    0.17108139279166
H          -0.46535160856905    0.92180589135841    1.76011148949135
H           0.95843629758979    1.30662096425534    0.97285976935696
