    19
        -40.92022146
S           0.24547772714661    0.42557084098260   -0.78174335709828
O          -0.97704083406591    0.49460214905912   -0.01540311551571
O           1.27653739728981   -0.35334578016594   -0.14549143334916
O          -0.03071064036306   -0.14836643351542   -2.17563124829822
O           0.72563322307843    1.84385399890660   -1.08784455007874
H           0.44834703054240    2.44273474136176   -0.30160988814089
O          -0.09927995435832    2.93657944226331    1.03840554399668
H           0.44530812940550    2.37927825215412    1.63926851802023
H          -0.96417474590290    2.51197936158868    1.00876163572322
O           1.20064940901125    0.92427748574668    2.22382928884912
H           0.71397309739391    0.33726396596355    2.80641080967713
H           1.40104677948004    0.40654960168969    1.42335006238928
O          -1.64141768917455   -2.10312799273632    0.09961372996011
H          -2.54968439323112   -2.19637040785234   -0.19562785733428
H          -1.47319049366253   -1.14430421802274    0.17571973412865
O           0.37905851396782   -2.57379868369594   -1.58791158437517
H          -0.38102559299503   -2.64060241062027   -0.96668902271185
H           0.13427176313111   -1.15960375994679   -2.12191338489104
H           1.14622126328760   -2.38317016314168   -1.03549389095768
