    19
        -40.92052663
S           0.38666570735307   -0.70680478139876   -0.24445434528665
O          -0.38095909131478   -0.60783907661118    0.97194884301001
O           0.43120200588414    0.51768272347922   -1.00422453081149
O           1.81706204809441   -1.16578887604331    0.05276260857734
O          -0.16643064248706   -1.85348884920703   -1.09547502493746
H          -1.18039134661632   -1.88172172039827   -0.93108060940740
O          -2.16406522174279    0.85416241793601   -1.62774093293117
H          -1.21562040519993    0.89011200919454   -1.40088104706272
H          -2.22322369641356    1.01044359864217   -2.57249787371514
O           1.02533323984728    1.22803252099513    2.34575711058620
H           1.19000134767586    0.87770933022627    3.22361513263508
H           0.38892179776329    0.62186147335663    1.92165233515425
O          -2.59477673195481   -1.51771124705839   -0.49119413648993
H          -2.67866902316228   -0.64451272242812   -0.93780295905865
H          -2.40680718145681   -1.31541539744040    0.43294769220558
O           2.80213281953502    1.13826062183412    0.36201011619736
H           2.38157764374022   -0.31562415093433    0.17339236217597
H           2.29283994665587    1.52656631091502   -0.35912528704727
H           2.29520679380781    1.34407583495528    1.18039053620484
