    19
        -40.92003355
S           0.24319245006093   -0.76470793276407   -0.35862416635178
O          -0.90026239938907   -0.48426532910174    0.47702129949179
O           1.03397323164170    0.40607183729368   -0.64267357741726
O           1.10169329641759   -1.85065905381586    0.29396384492411
O          -0.19275512014831   -1.44692721937361   -1.65710808029841
H          -0.80205539157975   -0.83534802920594   -2.20360687870379
O          -1.40719203957461    1.83522282172071   -0.79336900349411
H          -1.41090359456429    1.11493880361903   -0.13901586002571
H          -0.48385869251100    2.09732680343293   -0.86693944687548
O          -1.78562888449580    0.17529856017175   -2.79777004141013
H          -2.68612640813472   -0.15409673491891   -2.74412762715848
H          -1.72004402869987    0.92915822661846   -2.15464688323772
O           1.91707795713174    1.04039414270875    1.80617394272901
H           2.87328475351025    1.11770854418171    1.79699936685080
H           1.63924532142575    0.93709236813830    0.87553025052285
O           0.66855105195533   -1.15213858171898    2.68150365653789
H           0.99975491182411   -1.73261790512711    1.30870902022035
H           1.16562357843302   -0.30649899930945    2.60850406636581
H          -0.25356999329662   -0.92595230255994    2.50947611732656
