    19
        -40.91833221
S           0.61339115885099   -0.03974289097491    1.61477951453597
O           1.16932639062239   -1.09320337583643    0.75100965242701
O           1.50847011045256    1.08401578915949    1.73517824426626
O          -0.73807223712523    0.30531423760900    1.21989527133546
O           0.49541617239662   -0.68830952469094    3.05532800001127
H           1.39269692057928   -0.67698746664097    3.37447231494618
O          -2.30164129790408   -1.20546329562803   -0.18901442488188
H          -2.93010801983267   -0.61598319128882   -0.61097180580571
H          -1.81557594353714   -0.66283565214666    0.48342884361769
O           0.40455630073087    0.61789632244421   -2.41543603891666
H           0.40726211806115    1.27618716993835   -1.66614063250426
H           1.26411074824046    0.69075122902671   -2.83442470772104
O           0.43609555494533    2.24836417593807   -0.36693972006202
H           0.99634034657862    1.92825347473545    0.37166290107963
H          -0.45023366739726    2.25616123533665    0.00591733973518
O          -0.05778052073883   -1.62063521553074   -1.30792512636428
H          -1.02488786268612   -1.57343939193154   -0.97296602597849
H           0.11495179374821   -0.75603473328850   -1.84067438820531
H           0.51568192398946   -1.47430889622999   -0.40717920149916
