    19
        -40.92246915
S          -0.77818641209874    0.60759967923655   -0.41266275405037
O          -0.14974328842442    0.03198623934274   -1.56302130668923
O          -0.89259740006925   -0.42049753561510    0.70995358942941
O          -0.14272618365575    1.79786038685114    0.10296240732806
O          -2.25561204764698    0.91495730025419   -0.74032572279036
H          -2.59282244999551    1.36202012979906    0.07614131481098
O          -2.35107259859502    1.98615651109866    1.62704800718580
H          -2.23894609133220    1.25818178625758    2.24480115262371
H          -1.45880342231233    2.26153290215459    1.36016115556917
O           2.32070401243081    0.69513894092844    0.02541804996161
H           2.46291290478218    0.58285909157768   -0.91784808575769
H           1.54857313993202    1.28023946579949    0.11103293169108
O           1.02432843387466   -2.38687870747027   -1.58712318239052
H           0.40196705785660   -3.04173913140106   -1.90780334883045
H           0.62100393930236   -1.51449334682983   -1.75705134062389
O           1.27779900667448   -1.56829600955368    0.92168440588769
H           1.29716611219389   -2.08409927554283    0.08088576404544
H           1.86241510803697   -0.78976676357913    0.75349805994680
H           0.04364017915709   -0.97276165317623    0.87224889261503
