    19
        -40.91790596
S          -0.11203132541634    0.80491605484890    0.62641353546408
O           1.05528884406826    0.15834917900713    0.08378801217221
O          -0.80065520665537    1.66735300073102   -0.29026972101690
O          -1.06931604387524   -0.21941208324689    1.20702927869088
O           0.30814451732897    1.61763605467011    1.89068343749063
H           0.90770400749816    2.31254460568592    1.54687008232807
O          -1.82772849156197   -0.46305761961468   -1.65409677310492
H          -2.58592609344822   -0.70831965697240   -1.11949593610632
H          -1.54254882111676    0.40701435800158   -1.33452574020739
O           1.67223038815195    2.90746813902532    0.05457573871698
H           2.06727447046648    2.08704892450388   -0.26064441613581
H           0.87474644961546    3.03862339696652   -0.47122837183400
O           0.38165234388286   -2.04260539682865   -1.39636224639070
H           0.91169558645688   -1.27472906379491   -1.13451052595737
H          -0.45598829740309   -1.65908263561954   -1.71601196516458
O          -0.04421976513757   -2.49123434800770    1.11351019374407
H           0.09274092484729   -2.50945731255232    0.11524667740344
H           0.83370658995521   -2.43532312094266    1.49948569143538
H          -0.66677007764055   -1.19773248582047    1.23954305851039
