    19
        -40.91790588
S           0.62806341214452   -0.29013624567128    0.75803880780104
O           0.52927823223177    0.89941377973800    1.55398519216990
O          -0.63269874664639   -0.81163320063905    0.29586686607184
O           1.57400696129162   -0.06791092450851   -0.40749695476891
O           1.36175160788477   -1.40159191905750    1.57151456907806
H           0.78925758465783   -1.55110593509778    2.35284702098011
O          -0.74114834166626   -1.04005644661815    3.10197888254774
H          -1.33614068359770   -1.17004587495316    2.35521802140314
H          -0.56896275607494   -0.09223336033823    3.14352641406949
O          -1.51916503185652    0.53312080246769   -1.91662980751164
H          -1.13916468882592    1.38685108375118   -1.63800109507545
H          -1.59472009687658    0.02491141829884   -1.09496711350904
O          -0.02240713145717    2.42468432351106   -0.64257654778379
H           0.84948473515329    2.58847597891237   -1.00838192084714
H           0.12118156938294    2.06224578273495    0.24532730757609
O           0.53999018381779   -0.90976796025429   -2.51506112416054
H           0.23465300068789   -1.80662790206782   -2.35612404242997
H          -0.28110860902054   -0.32648871277930   -2.47574308476582
H           1.20784878889740   -0.45210467753123   -1.32332140089183
