    19
        -40.91790594
S          -0.37480209122346    0.33962667427684   -0.89304819797435
O          -1.09123403317955   -0.84687812493024   -1.26361436135928
O          -0.58195012081492    0.76826309705209    0.46650330730749
O           1.10569990977774    0.17327481178801   -1.18134035841215
O          -0.76878451551319    1.50647974199292   -1.85149553037621
H          -1.73199067130568    1.62261189154358   -1.71265901536486
O           0.61477994796106   -2.42557261313215    0.16856679459892
H           1.35544226109452   -2.53260194287115   -0.43205720896271
H          -0.10627766093712   -2.04611172752506   -0.35730493665750
O           0.97525282046635   -0.65336690808515    2.21096986745065
H           0.20424134350806   -0.14428904300578    1.91855971162529
H           0.93251162353761   -1.47636854161402    1.68971101668638
O          -3.10616229453742    1.01284201663622   -0.76121414851631
H          -2.73666034148744    1.09491040627725    0.12494141293484
H          -3.03640766500560    0.07971000263440   -0.99370470244424
O           2.44562321321496    0.92239517493480    0.78417587643718
H           1.72705627008346    0.52295735857238   -0.39898055354014
H           2.13900372059009    1.79771050296994    1.03451990196985
H           2.03465827382070    0.28440722246519    1.44747110460615
