    19
        -40.92217212
S           0.89542307081220    0.43671370579494   -0.95802232489371
O          -0.51696747995866    0.15737199505463   -1.14727083480984
O           1.30786956828733    1.78302089230314   -1.23309969680549
O           1.35594790002615   -0.05257363180422    0.34803151271003
O           1.63080245872379   -0.49935462334406   -2.02650496336492
H           2.39979476974804   -0.00380286925653   -2.29245243889686
O          -1.95277636407965    0.64427890083643    1.06569171218434
H          -1.37394750392381    1.41228276244863    1.26809977992669
H          -1.85547272250143    0.54465040326791    0.10221492132809
O          -0.71988587262323   -2.41930066196454   -0.75551563508434
H           0.04566325027092   -2.84139749401178   -1.15014901712542
H          -0.73304952570965   -1.49798712023861   -1.10334686896084
O           0.08855920770813    2.36776665374999    1.09270737047315
H           0.48490203888529    2.34573553062213    0.20372775971291
H           0.80060817606278    2.14064581734042    1.69558579441879
O          -0.43649573640925   -1.28661210393582    1.52382821833102
H          -1.17714248616255   -0.51748237487786    1.46461068960537
H          -0.65159726389015   -1.92826758508875    0.76766029567174
H           0.40776451474641   -0.78568821690379    1.13420370557651
