    19
        -40.92022166
S          -0.44392630912257   -0.73591243958976   -0.33969448790923
O          -0.52263982828064    0.65972540594708   -0.70360800667905
O           0.57921931637991   -1.01658022556401    0.63449341666569
O          -1.79458273107005   -1.22484950889237    0.19416058821122
O          -0.25559233119022   -1.57370739455955   -1.60409899129275
H           0.28954465306673   -1.01391067681118   -2.26949257420713
O           1.11424816337459    0.10494921930478   -2.90897381089654
H           1.85029827243108    0.14406775638468   -2.25694384650608
H           0.54201338499237    0.85046099713334   -2.69496499457688
O          -1.09987951193364    1.75930982335982    1.67544007551441
H          -0.83571785628072    1.48333723431838    0.77683285543331
H          -1.87200625732995    2.31936257943802    1.57101210689364
O           2.59285619845022    0.18994674958161   -0.68425024539931
H           2.70858796265920    1.03263230438206   -0.24010513348220
H           2.00417601337025   -0.33763834971808   -0.11488585216166
O          -1.35190971871795   -0.72533107102853    2.63358441111180
H          -0.44085816576669   -1.04034732131326    2.60482028505877
H          -1.29565536595823    0.24927708835011    2.51171481683066
H          -1.76817586897113   -1.12479217072869    1.21495937735812
