    19
        -40.91790592
S           0.12918732722710    1.00892774069128   -0.13491136385401
O          -0.82320467009984    0.07556249894372   -0.67981175065233
O          -0.13776193779263    1.41928462985839    1.21364801674077
O           1.53986396107224    0.46196040667183   -0.25038584126932
O           0.18522916549521    2.26439703502675   -1.06013180440208
H          -0.70729974034996    2.66265633656832   -0.98677347322862
O          -0.30032803865557   -2.48128820693015    0.14384988994168
H           0.03631201468453   -2.20712744063696    1.01698667173691
H          -0.84445019426985   -1.73452268063815   -0.14834285060148
O          -2.29937873724198    2.43199594225814   -0.22715270760485
H          -2.01290953989333    2.38560474860598    0.69236477217186
H          -2.47499722696459    1.52389497618823   -0.49765087225587
O           0.69409857865092   -0.98737907582541    2.19863173582065
H           0.33166158027193   -0.10008742981783    2.05121444309561
H           1.64794319603796   -0.88540420089979    2.22278799542983
O           1.51831681630608   -1.68873988001423   -1.51317531614910
H           1.59905490917299   -0.42714581419648   -0.82148141944885
H           0.89044226126702   -2.17465008782815   -0.89233274917975
H           1.02822027507376   -1.54793949797117   -2.32733340626406
