    19
        -40.92052669
S           0.74751545790472    0.31351931167139    0.22166848662927
O          -0.01658588448398   -0.57198068060879    1.06477375753283
O           0.10972334531668    0.61113508669626   -1.03664995788469
O           1.05639682992162    1.62434105194820    0.95045470141527
O           2.13918921625921   -0.28429960620694   -0.00346726769148
H           2.02296761577802   -1.30529339261076   -0.02439676321538
O           0.01890924823206   -1.82187798187303   -2.17963045525164
H          -0.08280572528678   -0.91104968407082   -1.84424046511420
H           0.38753738036601   -1.74636225668008   -3.06220884001220
O          -2.22103974800009    0.89851804740415    1.52646499904720
H          -2.37341373762767    0.91263288222956    2.47363094330459
H          -1.51802634016397    0.24003755942630    1.36975318568954
O           1.40844051005539   -2.69945721046357   -0.08269546888534
H           0.89778971708770   -2.61065909652611   -0.91982586736145
H           0.76055123074424   -2.59779373700456    0.62448808583624
O          -1.00959549032617    2.86684596765921    0.20082826431691
H          -1.64101865989430    2.29959269907130    0.69961520000453
H           0.30134864867493    2.27991362688250    0.71322345512162
H          -0.98788362455200    2.50223740313694   -0.69178598348092
