    19
        -40.92022154
S          -0.03003870193574   -0.91769749673382   -0.11613498207074
O           0.77917984612212   -0.10441281135859    0.76153829603772
O          -1.02356699127145   -0.16572789048704   -0.83853900640962
O           0.85656474038426   -1.66946259131383   -1.11471117612171
O          -0.66448945982495   -2.04893372856536    0.69246995536717
H          -0.83551600609873   -1.69514110381865    1.64066601603800
O           1.90755295711288    1.57095198158135   -1.00475441385738
H           1.51698510721802    1.06254211749176   -0.26818848039545
H           2.85728730276270    1.56055205119746   -0.86781964105681
O          -2.09933129681064    1.05336301915182    1.30753804572835
H          -1.87483893509078    0.65675238151423    0.44653139990665
H          -1.73702102058862    1.94191642240699    1.29469617972294
O          -0.94078413729808   -0.78386619396574    2.86509441189700
H          -0.05337641404306   -0.40790061531935    2.84440262214897
H          -1.52806261687909   -0.08979113635248    2.48864116145067
O           0.80769881024450    0.08407408607323   -2.93647952490221
H          -0.13055921805281    0.27630831407373   -2.82368761737219
H           1.28030125924502    0.76819193749868   -2.41041924346223
H           0.91201476480324   -1.09171874307470   -1.96084399265000
