    19
        -40.91519516
S          -0.50682774035761   -1.05379143761982   -1.43549969815157
O          -0.37458089619625   -1.92111088418648   -0.25116429269370
O          -1.07154732582137    0.23941345455260   -1.02118848968449
O           0.67527684523121   -0.93122063528006   -2.22236815676315
O          -1.61479388211845   -1.75286985694652   -2.31797968044491
H          -2.30426092438925   -1.96643790818727   -1.69631283724447
O           1.28344160027764    1.45349111752338   -1.10860125523525
H           0.33687985615476    1.21115243710306   -1.10517750780845
H           1.64806037259831    0.84527302409842   -1.76437566502377
O           2.13173204303668    0.63919531028414    1.21572892825336
H           1.88586295453642    0.97417711735169    0.30627789623146
H           2.41504573897273    1.39915838275649    1.72634600354198
O          -1.72675693661289    0.89116623113472    1.39663513098295
H          -1.60334474237061    1.83943098546759    1.47050530551728
H          -1.62463480432541    0.67201789379941    0.43496401544111
O           0.13576993706847   -0.79084455797967    1.86655736140786
H          -0.62811604226019   -0.11680831324136    1.86314554249204
H          -0.05345522299542   -1.36731429596733    0.96547397514335
H           0.99624916956547   -0.26407806467173    1.67703341403465
