    19
        -40.91893366
S          -1.68125082522435    0.43074590375966   -0.01071560945594
O          -2.41152918328034   -0.79815545249923    0.16929106730545
O          -0.85242927089843    0.75821447912353    1.15971095578754
O          -0.91033678503544    0.51559498397101   -1.23539508694773
O          -2.76325619046339    1.58917665674390   -0.09883200828904
H          -3.44805373479762    1.28888998293298    0.49110501143728
O           1.49506790470817    1.45205804823961   -1.45485502252854
H           0.57052521420620    1.09501309310582   -1.50065744521185
H           1.43857233790817    2.37807650585086   -1.69747245336781
O          -0.24860878976339   -2.10471236958796   -0.59306644989556
H          -0.14340219883904   -1.60398473498655   -1.40764720248814
H          -1.10814488813419   -1.80218154444764   -0.23568144727796
O           1.78995902006175   -1.71073319823811    1.00968157639138
H           1.54510368233056   -2.10696317874499    1.84819014526930
H           1.06173876326023   -1.94118797849948    0.37216257663900
O           1.60157553330320    0.81120756991721    0.99872150036936
H           0.53949066518927    0.85019085880040    1.12880540306659
H           1.79823926789546   -0.20520167588878    1.03241682177674
H           1.72673949752461    1.10395205042538    0.02423766741985
