    19
        -40.91966055
S           1.64772094030077   -0.10523293494506   -0.45363984463180
O           1.06215314041273    0.21828858813256   -1.76381373072293
O           1.68157180065116    1.07226091277354    0.39995847039278
O           0.99348208702707   -1.23441217196024    0.15958211913208
O           3.14076742044347   -0.51591538355324   -0.73647541119617
H           3.50887279748985    0.27110283309297   -1.12606432544080
O          -1.62233566487478   -1.83539744732990   -0.27049659190721
H          -1.68720517260300   -1.56878906784251    0.67867049803040
H          -0.69105284388068   -2.09985231600386   -0.35370998144615
O          -0.96408122613482   -0.74366593857770    2.04283875362360
H          -0.08520732612630   -0.95280438488046    1.68649420204013
H          -1.05339132789751    0.21363435653753    1.97165426546021
O          -0.75135948890603    1.78917690245886    0.75543162926577
H          -0.80667030289867    2.74611499365683    0.78730711284877
H           0.22219257538395    1.56529779876532    0.68789806509371
O          -1.36043420579501    0.40538046292058   -1.33505149578674
H          -0.34722125522516    0.32960727469458   -1.65004849109999
H          -1.58662314072664   -0.57176913433115   -0.94755669392123
H          -1.30117878661112    1.01697464638744   -0.53297854974469
