    19
        -40.92022161
S          -0.59257984256719   -0.03542770958202   -0.70740964579203
O          -1.05870701023144   -0.61711564742457    0.52498963616942
O           0.69449607991252    0.60919056487644   -0.58724881921739
O          -0.54706097798938   -1.11924023995130   -1.78978582860714
O          -1.60283304778390    0.96379170993213   -1.27053498875125
H          -1.33842658445132    1.89677342353253   -0.93419095548598
O           2.22293143973115   -1.46667931292244    0.15818278286158
H           1.76135676963493   -0.63148841742390   -0.04901884219103
H           2.98163168266673   -1.50958367565866   -0.42780849057993
O          -0.63696962391892    3.04448049180153   -0.20546093684091
H           0.27417292341971    2.83084841693143   -0.43620319993034
H          -0.75308133902820    2.73015735136324    0.71983004226997
O          -0.74707356871456    1.59070157533512    2.03450903847048
H          -0.97824535402657    0.73655438748941    1.62699449014159
H           0.06340823497654    1.44139789466067    2.52606934476985
O           0.09899330524782   -3.03449173609636   -0.26995790995912
H           0.97891053006243   -2.66286881918565   -0.03401013435320
H          -0.49350187113023   -2.76250520520475    0.44071143452100
H          -0.32742174580488   -2.00449505246935   -1.31965698750473
