    19
        -40.91907674
S           0.32568504475441    1.63620764284756    0.00419385154264
O           0.53622244286121    0.73479968707924   -1.14873052765882
O          -0.88327075575473    2.41238972404454   -0.14207675144461
O           0.42039629217944    0.90840185898794    1.24857240883426
O           1.54108903846221    2.64959654096573   -0.03432678978810
H           1.28213979278224    3.32636950082388   -0.65440729986087
O          -1.27627509115584   -0.95409090282874   -1.00906510460281
H          -0.78444141572387   -1.75858322660913   -0.57065216177269
H          -0.51713892814900   -0.24597864890812   -1.19837781658393
O           2.03367062712936   -0.98401082548397    0.36529147450634
H           1.59903523368952   -0.34767932367212    0.96676494739689
H           1.98788971719393   -0.53524956217683   -0.48906258410274
O           0.12337125460950   -2.73835899129430    0.10614895730950
H           0.91676334874819   -2.15974890409737    0.30289994997071
H           0.43976253360179   -3.47146065970848   -0.42483033394848
O          -2.26551340176471    0.42353865954720    0.86226963956978
H          -1.82870609714062   -0.49029970167067   -0.25920429834865
H          -1.63268484362528    0.29278299911719    1.58028393610704
H          -2.01799479272763    1.30137414303281    0.49430849286677
