    19
        -40.91167203
S          -0.66242439175961    1.06487703133177    0.93780881247530
O           0.15813118735948    1.54245030336363    2.00386902329946
O           0.05324378204258    1.29236385996476   -0.39618200331804
O          -1.15332204641161   -0.27447104921185    1.03606341933788
O          -1.92300525038972    1.99118267437550    0.80449040372570
H          -1.65081105660479    2.89319460088198    0.96237995795504
O           0.52277284069181   -1.29069081119098   -1.97351871125921
H          -0.43943461085238   -1.42177219659317   -1.85921599846640
H           0.63046171776948   -0.35935357084388   -2.17924813692350
O           1.36479236375943   -1.42620034037506    0.56531163250649
H           1.18050735564737   -1.55967080331965   -0.39342408618631
H           0.50073590078232   -1.28174601827059    0.96984305366930
O          -2.08800940835199   -1.41486035022515   -1.23016999098243
H          -2.48270616764823   -2.25797986907149   -0.99913189671983
H          -1.87288287457616   -0.97163613960428   -0.39052934124728
O           2.35483849068764    0.96123002008167    0.44745303582238
H           2.21958109424322   -0.02832687163988    0.52823133433582
H           1.08947466676022    1.22222151759341   -0.16427745225226
H           2.19805640683734    1.31918801273559    1.33024696418949
