    19
        -40.92052670
S          -0.81116701451246    0.07006469022892    0.20314945809858
O          -0.24717715818922   -1.11746540915771   -0.38881777540625
O           0.14826256599635    1.12546396730019    0.41391159214823
O          -1.96657282305071    0.60436464472809   -0.64794409649950
O          -1.50354152419126   -0.30397707952511    1.51678313418027
H          -0.96093836073389   -1.07332108530679    1.92878210649381
O           1.82376521625323   -0.01941059737892    2.17978397300686
H           1.93577799765525    0.58608520385173    2.91556105457725
H           1.34399246207838    0.47345101809203    1.48749882198439
O           0.14260792748194   -2.08654875081476    2.21463227110881
H           0.25342835513578   -2.42904598625648    1.31988397354910
H           0.89401806002680   -1.46549473709687    2.35179210443616
O           0.56554477450588   -0.18809884268335   -2.77864934043711
H           0.39394977778666   -0.62460204063085   -1.92286690744442
H           0.21656964332422   -0.77147620055616   -3.45565135959482
O          -0.57470511598380    2.12424172288523   -2.10596531978313
H          -1.56314499992859    1.29212524794200   -1.29648934991187
H          -0.00400112139006    2.40806509073480   -1.38209790082238
H          -0.08666867225860    1.39557912364372   -2.55329643968292
