    19
        -40.92079117
S          -1.26278981373821    0.09562130841395   -0.77672717935787
O          -0.74112047093796   -1.07417313163295   -0.08350921841791
O          -2.22789256233170    0.85050544704705   -0.01980593215619
O          -0.17581160104398    0.93023099262747   -1.29219169885047
O          -2.00985420117994   -0.47959463688076   -2.04802555453028
H          -2.44992820450026    0.28354369521732   -2.40891638049327
O           1.43617897362502   -2.11373901050665   -1.11256073943038
H           1.67523463966698   -2.88404352909086   -0.59316666065398
H           0.52079652918278   -1.86535744814087   -0.84198550104652
O           0.90890911464568   -0.10703163925038    1.77293530598938
H           0.22838783941831   -0.64546309235005    1.32026182828661
H           0.44150042376946    0.73582290968265    1.98098464539150
O          -0.72046362638240    1.96373600099180    1.84430218439087
H          -1.31325189263944    1.64662033061377    1.12893692328657
H          -1.29215512295244    2.22641499301918    2.56817072350551
O           2.04301625904125    0.27279941825888   -0.41358356656255
H           2.04333722454183   -0.67932215454279   -0.76492780386304
H           1.17380981460128    0.66851235940708   -0.85933628657996
H           1.72209668721341    0.17491719711793    0.59914492109107
