    19
        -40.92343546
S           0.63815917013991   -0.54106331269954   -1.46495027351060
O           1.25760060785876   -1.50170855256024   -0.57674913838494
O          -0.75045108427020   -0.89210945881053   -1.76573378344543
O           0.75384956408641    0.82483665784598   -0.97917861166413
O           1.41492993071273   -0.58996435917649   -2.83470321391156
H           1.31812964086759   -1.49980417261777   -3.09802049168945
O          -1.29692879497940    1.95627952228003    0.30124133540917
H          -0.82154638147589    2.15804813274287    1.11477584670665
H          -0.60007165700151    1.75216174018742   -0.35658172467968
O           1.16089623546457    1.07746233027628    1.63192860710309
H           1.15558930188683    1.01061125428112    0.65144642809789
H           2.08217852886153    1.10213301744100    1.89393905211871
O          -0.11295831096623   -1.28804229240425    1.64113591148589
H           0.31789953565035   -0.45791066374413    1.93384238142816
H           0.44388973333442   -1.58565333016759    0.88254864938023
O          -2.05363538381044   -0.47402015794198    0.30661755067975
H          -1.33206836161040   -0.88518487030161    0.98005837073534
H          -1.93235586303011    0.54486872376755    0.36395565195694
H          -1.64310642171881   -0.71094023837810   -0.62557257779144
