    19
        -40.90618306
S          -1.91607091086438   -0.30925304575394   -0.09469363694510
O          -1.50390834283220   -1.60573677885121    0.36276238597503
O          -1.84274288740032    0.70686604671070    1.03332356088209
O          -1.26095179010984    0.17311332610996   -1.27208238932703
O          -3.45486753878165   -0.36214431991565   -0.38772128391058
H          -3.86407825269695   -0.82898016790658    0.33835610055174
O           3.57384554371782   -2.22359501667578    0.41884108815112
H           2.71582635062568   -1.78683755835101    0.33020790476216
H           3.63180150177346   -2.52293112734403    1.32731205074913
O           1.05022508709374   -0.93867202238180    0.03320634936270
H           0.21624339370955   -1.39821543711769    0.24497633272271
H           1.04507261072746   -0.82719273976950   -0.92170376771066
O           0.17647383104214    2.46025871224244   -1.32153311778419
H          -0.43620635406188    1.71530791639628   -1.45940442167618
H           0.72424923749232    2.52087336964920   -2.10608400427070
O           0.51046263982397    1.46601606659750    1.12535827272922
H          -0.84275916725002    1.08844866550910    1.15828294453599
H           0.94325374423162    0.62726609501350    0.85874530713666
H           0.53413130370458    2.04540802587659    0.33185032405421
