    19
        -40.92052658
S          -0.60761205192514   -0.58055641002824    0.03656345403694
O          -0.85030508177337    0.78747820350098   -0.34858912380849
O           0.77122403303776   -0.85869909039557    0.35303586965850
O          -1.51765230569867   -0.93959675681763    1.21468285888002
O          -1.07591125597264   -1.54339354855231   -1.05810993681897
H          -0.26451376195675   -1.72107067970674   -1.66361233052430
O           1.10713324240096   -1.62931987882135   -2.32293527650818
H           1.07798730350469   -0.68924477260049   -2.61387647710517
H           1.64736183647693   -1.63331389487957   -1.52391288632442
O           1.16685884755523    0.73569990071701    2.48308316257901
H           1.17586674602160    0.18293715368399    1.67888950908647
H           1.55973768648423    0.20683817350253    3.18062958622334
O           0.61950793520830    0.97624695190991   -2.59345546943563
H           0.12043083655230    1.06104285241756   -1.75913532553384
H           0.06136901939904    1.34367057929315   -3.28199276816071
O          -1.43017528289189    1.31631989739995    2.34515291678398
H          -0.47526647485042    1.26387175691086    2.57842801904591
H          -1.46494649421609    1.80805614161272    1.51618427787904
H          -1.62109478742739   -0.08696658908711    1.77896993990686
