    19
        -40.92052673
S           0.05596437546398    0.23653469707307    0.80418946532962
O           1.18382622103054    0.22376371040790   -0.09378808630487
O          -1.17721193006005   -0.19432643190690    0.19412475845894
O           0.38163579969157   -0.61898080141298    2.03183271095647
O          -0.14199237277096    1.63046160611592    1.40654270778728
H          -0.80374227552523    2.12556017503578    0.79598513925474
O          -0.59499629993933   -2.74166613967774   -0.44496287759566
H          -0.89892822772835   -1.82010846398399   -0.34169024416768
H          -1.29896677796624   -3.29910992247280   -0.10701510255771
O          -1.69503159413423    2.50209376787282   -0.38333684683581
H          -2.17074732902491    1.66784032276999   -0.47215818057825
H          -1.01910366368755    2.49520783340190   -1.09901306902088
O           0.43001415719079    2.04447820997351   -1.92460218954885
H           1.14976158941568    2.66937965632879   -2.03381995442876
H           0.77889688871071    1.31333429820428   -1.38048316605773
O           1.72507391765254   -2.37545151675241    0.81334795181180
H           0.97833930145380   -1.38950112042340    1.70589136968906
H           0.96336676310293   -2.73006897339919    0.30026430770740
H           2.15384144712455   -1.73944090715797    0.22869130610287
