    19
        -40.92453853
S          -1.40689585379791   -0.57574581621531   -0.10800844432122
O          -1.30393839140695    0.51980633345043   -1.06586117946230
O          -0.47857454734912   -1.64837371789596   -0.44654844622951
O          -1.26458674330101   -0.13037137026740    1.26221087463257
O          -2.86614831833925   -1.16634893441657   -0.23683376985732
H          -2.93443371001614   -1.45897934491269   -1.14106430257177
O           1.97904096825791    0.85131873387961    0.28675440343186
H           1.20587277381212    1.50685790362799    0.54722347905535
H           1.80194814513012   -0.01267068778656    0.85104198498158
O          -0.11420408092942    2.15404413174814    0.81118605338597
H          -0.53444240107298    2.34173518204725   -0.03653292600635
H          -0.63116435560703    1.38691577542881    1.16007209025871
O           1.22781259719590   -1.24194661479260    1.47284621571351
H           0.60512531853058   -0.96823957263964    2.15635816275258
H           0.64370686466341   -1.58198978357399    0.74968566465651
O           1.09337544511106    0.05045449126129   -1.93165842429420
H           1.75646628238101    0.56552532189478   -0.69398979576050
H           1.06727953452682   -0.91161592934469   -1.86934468374853
H           0.15376048221494    0.31962388851062   -1.76753693661649
