    19
        -40.91739537
S          -0.60350025960625    0.89183178276740   -0.68526429826801
O          -0.92173128538607    0.85601095113744    0.71754051100853
O           0.78844114866830    0.63922899420985   -0.95964188202162
O          -1.49453232993970   -0.04744415204265   -1.48183760884203
O          -1.01825135712829    2.26146695682530   -1.28313927473114
H          -0.44210000654589    2.90227335803757   -0.81288141070939
O           0.84429027234652    3.05613369305947    0.37959462860271
H           0.46337341346569    2.68299887879586    1.18108307808513
H           1.42103636083066    2.37447755681503    0.01294764545470
O           0.39374756657160   -0.87099711075604    2.31588809128024
H          -0.10607640260733   -0.19520386424573    1.82083358113507
H          -0.25780244751425   -1.39054880529000    2.79056311911930
O           1.38165064200424   -1.83654398549930   -0.00320830400689
H           1.44212537721477   -0.96810803291517   -0.43498096671787
H           1.21531333221244   -1.63152543908150    0.93943089593049
O          -0.93787625061583   -2.42931745646368   -0.94001501949965
H          -0.83068541302105   -2.92137437534704   -1.75770186536050
H          -0.01162788103044   -2.31883742230744   -0.54699170379172
H          -1.32579448991941   -1.05452152768025   -1.25221922666907
