    19
        -40.92003315
S           0.57738424886899   -0.54393393560995    0.38464333264240
O          -0.83589051188015   -0.73767004735034    0.16241062487865
O           1.06568277204459    0.70300359049748   -0.14777666561652
O           0.88062449064981   -0.64744999221565    1.88121861567539
O           1.37746097738349   -1.71970334632444   -0.17991548892045
H           1.24794969465311   -1.79671237061753   -1.19042966908501
O           0.82649904683107   -1.80974567726181   -2.66155928113913
H           0.25424351434391   -1.00022515801714   -2.71990560781004
H           0.25807804717763   -2.56178164373775   -2.84488802976504
O          -0.70714890030714    0.29924600786518   -2.31917120215190
H          -1.04395613312196   -0.03266013908824   -1.46859966467094
H          -0.09767849676349    1.00634792193854   -2.08437036488478
O          -0.27462305861627    2.47388546764881    1.35112717314581
H           0.24537544675579    1.93735893816947    0.72212608639277
H           0.33872527757631    3.09393468427153    1.75097356298008
O          -1.28266539648068    0.38533340018455    2.67488000518589
H           0.05122579892715   -0.29314461521999    2.37167407015148
H          -1.07493442670768    1.28376172830115    2.33254075610869
H          -1.80635237133208   -0.03984480344145    1.98502174688011
