    19
        -40.92136406
S          -0.73256291304963   -0.98218385332518    0.64877220306595
O          -1.03781899367242   -0.89398529700824    2.05515764407838
O          -1.39283159045888    0.07751927064997   -0.13406478194970
O           0.68043748848411   -1.03851691140596    0.34868875892454
O          -1.36376637167695   -2.33914301284095    0.11841772792102
H          -2.11216606913456   -2.48811598030220    0.68936378047082
O           0.75181464200841    1.02112703018159    2.32858308307580
H           1.56411219214833    0.51189091823788    2.25774023095943
H           0.03366246267822    0.35268885730914    2.40552657995371
O          -0.39345147030889   -0.44959750646365   -2.56930329692842
H          -0.34695956329541   -1.40416672637694   -2.64496551960057
H          -0.91484904637105   -0.26787978085863   -1.76471432018357
O           1.68222482502022    0.69025917186334   -1.34623584416445
H           1.09428394206347    0.43171568106933   -2.08984985038851
H           1.58553274231719   -0.06735920576512   -0.72489309840103
O           0.15739680001873    2.03966143732040    0.06565193725642
H          -0.62443639455152    1.38563047711282   -0.06023884712838
H           0.46356405225271    1.81992302842645    1.01785725674625
H           0.90581325547752    1.60053239215557   -0.60149363374872
