    19
        -40.91612675
S          -0.11855458955554   -0.66557203920277    1.59929932073930
O           0.16362655524949   -1.34316706868901    0.31079734273289
O           1.08262693686002   -0.02269778586235    2.09883511355437
O          -1.27860858486880    0.17266739457981    1.52316262882380
O          -0.44506015896332   -1.84196745905011    2.60584009381509
H           0.41213181501002   -2.20643877814813    2.80439975800081
O          -0.99710130073491    0.92334091153777   -2.38242024192137
H          -1.18113582317539    0.63277064669995   -3.27759227662535
H          -1.60190735758491    0.39676692241875   -1.78005240761388
O           1.86939951749574    1.82818374853664    0.48275999666769
H           1.54201230573569    1.22594307994674    1.20413536495567
H           2.79929019978054    1.98226831199418    0.66310446101365
O          -2.26678316869658   -0.66412407705124   -0.75961050657285
H          -1.63835694461513   -1.39428992399249   -0.69795313025761
H          -2.16852213727234   -0.22380429417099    0.11034423191022
O           1.18004195684313    0.20510202036567   -1.32813671835570
H           1.51362682938646    0.95246515622995   -0.70029333051307
H           0.79535813225683   -0.52321154858747   -0.65425564999748
H           0.33791579686376    0.56576476244074   -1.82236404035807
