    19
        -40.92315424
S          -1.28070478384783    0.87363530463744    0.69232024571886
O           0.13246649715177    1.20898852964667    0.87735225037808
O          -1.66659663095369    1.07569417436012   -0.70680112269649
O          -1.59476933899519   -0.43582184831385    1.19701221075572
O          -2.11753247402522    1.92577206293271    1.51225113373689
H          -2.12680354109089    2.68117485087371    0.93257189366140
O           1.81895911358325    0.81305728686983   -1.13373194744027
H           1.26947590761366    1.19070940403247   -0.41219826150334
H           2.41785252357879    0.19889701914313   -0.69587875166539
O          -0.25388690295329   -2.13833354509909   -0.28314766678766
H           0.58189752203320   -1.96596362198464    0.20127288719331
H          -0.93505671897028   -1.71128319514732    0.28439904357980
O           1.63608623102219   -0.95659799698852    1.20417958020249
H           1.08085541006844   -0.14559937360612    1.22480267517126
H           1.69193829523144   -1.26267403216159    2.11047808437917
O          -0.20673453202378   -0.40254086175054   -2.07189307266947
H          -0.22718334894426   -1.25308534971016   -1.42523226567246
H          -0.90718035842460    0.23593848378669   -1.63156676571204
H           0.68691709994604    0.06803269848634   -1.87619017063075
