    19
        -40.92071437
S           1.34323471872788   -0.43377047622105   -0.45101363709098
O           0.22651664300079   -1.34989823900739   -0.42779557116317
O           1.75056642609575   -0.03400355155781   -1.77836116241083
O           1.07247178370659    0.73444184928137    0.41041595856142
O           2.57869143724443   -1.16955785909236    0.20388788983098
H           3.33382211443837   -0.74603993534050   -0.19429848902489
O          -0.13206212579719    0.12146160657137    2.72780882682801
H          -0.01911745410098    0.84419896898241    3.34692879369771
H           0.44769871432740    0.31381312096722    1.96423180420891
O          -1.92473862139843   -0.67165407081039    0.92228719673072
H          -1.23561976643509   -1.19406777042373    0.45102389013876
H          -1.51774859230347   -0.48875168709504    1.79517606734844
O          -1.25106936661801    1.35488667317737   -0.33020722523683
H          -0.28125178176372    1.29372729139502    0.00138731692945
H          -1.71181090705053    0.52774299623826    0.22522635978005
O          -0.72486402638067    0.27847805207475   -2.57023612686741
H          -1.17719285794497    1.02781046060360   -1.30435965265874
H           0.25357626314722    0.22371619239281   -2.45703426466462
H          -1.03110260092303   -0.63253361212235   -2.53506796494343
