    19
        -40.92052670
S          -0.37561605343620   -0.60650885327519   -0.44354914201514
O          -0.60260257424935   -0.40893863493836    0.96644095240280
O           0.55413648474580    0.33311230278496   -1.01927665136930
O           0.11405577878826   -2.03085094626514   -0.71986072014366
O          -1.71776487255613   -0.56167589567874   -1.17952573130337
H          -2.30744402144845    0.11449403598248   -0.67833134990525
O          -2.77994470787170    1.21596409454542    0.26479696461305
H          -2.40426602318266    0.87103105877439    1.08337940652041
H          -2.17237293573776    1.93702988669393   -0.01834174410630
O          -0.74285856407890    2.66223934701433   -0.66146595406844
H          -0.75943702662239    3.12306115731211   -1.50283777202772
H          -0.14013013573212    1.90305669126039   -0.77440644198319
O           1.84808607397712   -0.87843342626751    1.97133855814059
H           1.75801218425291   -1.51363181633782    2.68473190099961
H           0.94297215295623   -0.60701101022568    1.72754396271706
O           2.58044265393431   -1.53690826108389   -0.50452521518327
H           2.54628411502179   -1.33381937024320    0.45816775361505
H           1.14126881521414   -1.99891752409605   -0.70528602460404
H           2.51717865602556   -0.68329286597767   -0.94899275230801
