    19
        -40.92052663
S          -0.63532367924518   -0.53016589342333   -0.14767043555701
O          -0.60286833458232    0.82190822227284   -0.64737024888419
O           0.52443732858989   -0.89006021270518    0.62959822998863
O          -1.89489157144955   -0.76893737424626    0.68983267495790
O          -0.82218635519312   -1.49508421094086   -1.32201988700134
H          -0.33201398415093   -1.08213417382918   -2.12537497399775
O           0.56220209018030   -0.19692992191931   -2.98717218118893
H           0.24266118711765    0.66149147889555   -2.68515911463993
H           1.41757987061744   -0.33654611990976   -2.52042583290802
O          -0.61157772847768    2.23968574831792    1.63846185704389
H          -1.30601329202517    2.89859849297879    1.57430902202062
H          -0.52282334177947    1.84496825425944    0.75036647532485
O           2.48207141081056   -0.67976698209442   -1.20344003903792
H           1.88241169681229   -0.71307564265139   -0.43425968291786
H           2.99900316923244   -1.48776903897040   -1.17990255536578
O          -0.90183790265161   -0.08481243550041    2.90785840796853
H          -0.78679343595217    0.86260129303862    2.66606337963034
H          -1.64468152466509   -0.56424316565565    1.66542260237950
H          -0.04935560319367   -0.49972829792652    2.73088229217531
