    19
        -40.92071415
S           1.33276218920246   -0.63567973665160    0.13484878580851
O           1.08756856304817    0.38899906357992   -0.85356053843038
O           2.15513464122648   -0.20317947086060    1.24125999846417
O           0.05984561356120   -1.22200914219162    0.59952966264803
O           2.10858029307822   -1.81191666415964   -0.57978882667196
H           2.59165467285794   -2.23026807288411    0.12711204207095
O          -1.29103507869911    0.85262653721139    1.05399764271935
H          -0.84189947680114   -0.06946497062028    1.01797032233926
H          -1.47876942648731    1.03208014229671   -0.01404169132373
O          -1.73674568642539   -1.62538738750433   -1.35066365788769
H          -2.40779891551018   -2.23462710029593   -1.03958730523331
H          -1.02358818268015   -1.62919932701557   -0.68145703391308
O          -1.40188369728537    1.01651782189532   -1.41297711622087
H          -0.42455478562958    0.90578522426080   -1.46620966826488
H          -1.74665480012412    0.12627241608043   -1.63777059347898
O           0.89782896319369    2.08467253418296    1.43448222717381
H           1.15308755874336    2.49034980668977    0.60069151223280
H          -0.50953227744408    1.47448678882073    1.30651453452656
H           1.47599984217407    1.28994155716552    1.51964970344201
