    19
        -40.92343660
S           0.11257445004215    0.80205356914772   -1.47958035206781
O          -1.30047997521728    1.10653923083596   -1.24953881625866
O           0.98248835903202    1.65088337945251   -0.69365458963244
O           0.39581582871195   -0.61221574054485   -1.29323322234628
O           0.38855651114382    1.11041837509071   -2.99966582061293
H           0.16580589819786    2.03347648222578   -3.07007533924946
O          -1.10285775068853   -2.05888067875459    0.37486058867910
H          -0.38325690965325   -2.35355911332973    0.94392341892521
H          -0.66473585014256   -1.71050605853857   -0.42938284608326
O          -1.83784674205727    0.28742753779474    1.03307234896707
H          -1.76246556389159    0.69242608238380    0.07218240304983
H          -1.69474816423072   -0.71813335412421    0.87606897996170
O           1.64982665172554   -1.23867349280883    0.96124945314190
H           2.60608703551435   -1.24148132031266    0.90120477356889
H           1.31846102223704   -1.02136662975291    0.06197053519346
O           0.42710800169227    1.00844381948663    1.78022212773131
H          -0.93734889947500    0.63494605700771    1.49390961994608
H           0.93901438531725    0.17262918389390    1.77340588143029
H           0.69800170226308    1.45557268092665    0.94306086562325
