    19
        -40.92071443
S          -0.91005451647827    0.66187921656989    0.96412365950350
O          -0.78417951762771   -0.79738083427066    0.77758858483634
O          -0.33746433192930    1.08971318903788    2.21969378974639
O          -0.39712029023266    1.36604407836336   -0.18829214908287
O          -2.46155846863289    0.94895690851634    1.04781422150461
H          -2.66308150183500    0.84674165950728    1.97367445483025
O          -1.38538078085894   -1.63175439047846   -1.70004871996521
H          -1.56572448250594   -2.57279764030380   -1.68411873691788
H          -1.32865893263979   -1.34189473848411   -0.76786356392558
O           0.70333130922233   -0.03150641742953   -2.12222476102081
H          -0.02879844305461   -0.65624867776921   -2.30861407400108
H           0.26735632065125    0.68990862884148   -1.61248763711060
O           1.59578098397294   -0.98378334661560   -0.01901039952616
H           0.65846191269940   -1.08280710595602    0.38761998715484
H           1.34617672977145   -0.62629717326180   -1.02731140088260
O           2.07997691500101    1.18135952639281    1.21898628194500
H           1.97873167042960    1.90510430910286    0.59384573087356
H           1.25981309293366    1.19993197762226    1.76670045257456
H           1.97239233111331   -0.16516916939394    0.47992428950474
