    19
        -40.92079114
S           1.24296419928142    0.61348151032276   -0.53638266117758
O           1.15868275381099    0.66911091430331   -1.97301760905621
O           0.33858320778072    1.56227423239671    0.11638787047193
O           1.09051173178042   -0.72341701270492    0.02083675279583
O           2.70682504164799    1.06141671558780   -0.13465655139386
H           2.82661120476743    1.87528960009586   -0.61406861103751
O          -1.40826567230187    0.20612259116166   -2.39902993217935
H          -1.50918330019590   -0.08229657310150   -3.30812113156601
H          -0.46669722363778    0.46491708419615   -2.29735172222781
O          -1.50188060809878   -1.29061018637322   -0.23137641434192
H          -1.69363977299131   -0.80541374507688   -1.06800539651579
H          -0.52644933101602   -1.37070019142000   -0.22634005153273
O           0.59815231760770   -0.82463736567458    2.59530881458157
H           0.98144800284240   -0.81153853923998    1.68658670604745
H           0.53258791690007   -1.74698127014259    2.85093525346348
O          -1.35355068985831    0.45366280878348    1.54280422356507
H          -0.70544656231200    1.05837094034627    0.97248300576311
H          -1.60444737640407   -0.29903489285874    0.82999370857669
H          -0.70680581961323   -0.01001661058111    2.17301374574598
