    19
        -40.92079116
S           1.44771623108659    0.18256886697114   -0.28003038246261
O           2.19412603310421   -0.02970824844595    0.93314416605703
O           0.88338833604007   -1.05733489763928   -0.81679231704030
O           0.43185580603402    1.22159482898827   -0.18369616086604
O           2.46702012331684    0.70465123563907   -1.37264234959426
H           3.18150449179965    0.07709943220531   -1.32488666562975
O           0.39973666224825   -1.18581262921169    2.49198004648512
H           1.12761844280327   -0.83824908037768    1.93233886167442
H           0.69184025870210   -1.08864185584315    3.40041645078559
O          -1.52222748808023    0.15182387439643    1.28089944955448
H          -0.87150293737525    0.78483027339394    0.91537845989181
H          -0.98378550034011   -0.42219966608503    1.87470766510988
O          -1.35740966597366    1.22954486197414   -2.10116765828834
H          -0.58793793748362    1.36661477005236   -1.49939929774909
H          -1.95933463134037    1.96028144739104   -1.94631086657572
O          -1.58964930743344   -1.02630071989042   -0.91474998936467
H          -0.54767436646962   -1.18597550080376   -0.92419510752264
H          -1.72160723020676   -0.62181610351509    0.06309329160295
H          -1.68367733042790   -0.22297088919486   -1.52808759605490
