    19
        -40.91285565
S           0.68047348910812    1.56617248906846    0.11013577083285
O           0.66108311732003    0.75165261403191   -1.09973934687297
O          -0.65487555325658    1.61071193488458    0.72030981375812
O           1.72025732902075    1.23900123469329    1.04509047832885
O           0.97190265703383    3.04004276789914   -0.40251057120381
H           1.25679172605781    3.52448815042603    0.36717380449558
O           0.49097241752639   -1.88408777756335   -0.41051832068389
H           0.73422220900765   -1.01952506707431   -0.78269245922746
H           0.79400113721875   -1.84515478867467    0.52117090385905
O          -2.07661444604689   -1.76149493323163   -0.58093503314066
H          -1.08980028516974   -1.92043626522451   -0.43967270502351
H          -2.35195704626449   -2.35561162381681   -1.28182477824392
O           1.41972582780165   -1.23369860061871    2.01881140736131
H           2.28298215472586   -1.51864960659550    2.32468921922460
H           1.51725666050798   -0.29269094603941    1.77044057472203
O          -1.84207604210903    0.66293603517513   -1.17249879895022
H          -1.55123870112823    1.13415683923271   -0.24829700536723
H          -0.90226571417244    0.64434062975071   -1.53402541863726
H          -2.06084092717690   -0.34215311632971   -0.92510755523002
