    19
        -40.91476091
S           0.63335494183845   -0.93382667740755    0.50283949556865
O          -0.73686013901367   -0.48979247166731    0.83220945124397
O           0.70304535608852   -1.40742464622452   -0.86317429469369
O           1.58878747435085    0.12158829172320    0.81394399749763
O           0.96245725760847   -2.12633188320878    1.45844364302112
H           0.29859180743548   -2.81094051298389    1.23627946574771
O          -0.19035039131423    2.94124222516565   -0.62750803451939
H          -0.15370008234551    2.15813136418090   -1.23531687670571
H           0.59469993703413    3.45997163996245   -0.81724518233635
O          -1.11451991045138   -3.17209047880806    0.19564221092906
H          -0.61284651308035   -2.91946322074759   -0.59100934954614
H          -1.58573358840967   -2.37299969181506    0.46188127825336
O           0.02350523371274    0.80355086507514   -2.15016666027224
H          -0.73970397630818    0.52409706920799   -2.66009305422978
H           0.37410390967997   -0.00745145381206   -1.72263761375891
O          -0.06584059372918    1.74735108132675    1.59506034729462
H          -0.18047070976909    2.34354296270775    0.74839056617064
H          -0.63340046478339    0.89686993680560    1.40055911732954
H           0.83488043142729    1.24397559048495    1.42190149299042
