    19
        -40.92136399
S          -0.42836867932310    1.26095827019791   -0.38351086232977
O          -1.61915490662698    1.44857101266723   -1.17454483597284
O          -0.65941433567148    0.64161307657595    0.90202298147406
O           0.62936626995071    0.55156475106609   -1.12477969647252
O           0.17002503551902    2.70258352019923   -0.09185994293926
H          -0.10699419192676    3.22623383614455   -0.83840228280347
O          -2.34254810672911   -1.03727144997975   -0.68222947397356
H          -2.61229765379770   -0.96117391633032    0.23731866817793
H          -2.21680616881545   -0.11157729270342   -0.99186777167963
O           2.48816918141073    0.34876862287231    0.80184515120279
H           1.94359555627455    0.49600772962776    0.00570936713970
H           2.45344583498530    1.16629603757817    1.30154508053547
O           0.71324429485768   -1.49773657604385    1.53954692307641
H           0.10199199520645   -0.72735371214982    1.58386713866355
H           1.59108765812276   -1.06705320308280    1.44256763943198
O           0.06408657899070   -1.87360393069457   -0.82230157452743
H           0.40247153069248   -0.95001912017299   -1.11817290766630
H           0.37830086435425   -1.88487607517456    0.22551540913098
H          -0.95020075764797   -1.73193157031469   -0.81226902025286
