    19
        -40.92453850
S          -0.19693589517188   -0.30444649806129    1.48006565497818
O           1.23899583493012   -0.24921538120446    1.22812996110347
O          -0.81748484957648    0.99010919535924    1.22359194004491
O          -0.84503181732837   -1.38270909015900    0.76352077337201
O          -0.38414473510805   -0.61346119618878    3.01768038432640
H           0.04594574668891    0.10788138821868    3.46779635126315
O           0.21171441629678    0.31683631300121   -2.13935427467704
H           0.57452123512412   -0.61201088771521   -1.82169147349252
H           0.71125133981769    1.00965967859309   -1.53634373515887
O           1.26977612068876    1.78071989034399   -0.38306007979084
H           1.43981485572396    1.05131175878516    0.26600523771260
H           0.54396105853765    2.27433928545838    0.01658024955662
O           0.98319453037935   -1.81157982705174   -1.03084642145119
H           1.74713808367223   -1.57321152198875   -0.49230396411247
H           0.24515285781146   -1.86222934263922   -0.37505549470330
O          -2.02976534221813    0.35549113339713   -0.98739941361005
H          -0.77850778449866    0.35020228299772   -1.80057100426365
H          -2.24735914742756   -0.55811197314833   -0.76861869959283
H          -1.71223649833584    0.73042479198305   -0.12812597142824
