    19
        -40.91833230
S          -0.24366255457191    1.51807832712383    0.78644431962856
O           0.79660086523578    0.55364559228787    1.08494126476121
O           0.13222025793610    2.52822890854877   -0.17092844600332
O          -1.50022711135730    0.84956054772092    0.41323920000499
O          -0.54886537403335    2.26658387143479    2.14878538698568
H          -1.05702770686187    3.02371152460583    1.87375596618854
O           0.02808879744219   -1.28892094797049   -2.16963370761060
H           0.62558158211035   -0.51300684372052   -1.97922441788708
H          -0.46173070653400   -1.05776215336768   -2.96099447638105
O           1.51031541943263    0.78637225583974   -1.58075841713375
H           0.98947191447975    1.53910675610080   -1.22832426895491
H           2.07365378958956    0.53391058376852   -0.84352468206545
O           0.38052638157966   -1.92541391065430    1.71314624663121
H           1.18479897223592   -2.39598751709955    1.48470759161254
H           0.59071495779460   -0.95918363346561    1.64242580495513
O          -1.38576635002217   -1.55282005013866   -0.07621920736735
H          -0.84583862623139   -1.52909719702560   -0.95330589368051
H          -0.74392527689215   -1.86715854203359    0.65767205110608
H          -1.52492926136695   -0.50984756197214    0.15779569523153
