    19
        -40.91892047
S          -0.33303150235963    1.01120338122180    0.49565445236602
O          -1.20197506715538    0.34795724775222   -0.58986874051913
O          -0.38778023315716    0.19392586916885    1.67683345952744
O           0.97006112790604    1.28983069798085   -0.02725253905081
O          -1.06421914572936    2.34907551579786    0.76696151663554
H          -1.93173873420290    2.08468065750716    1.16316273433409
O           2.01904013650819   -1.00760562096589    1.01427170698262
H           1.24415103297540   -0.99512889261226    1.58964496790604
H           2.06915668125367   -0.10220746349033    0.67760708990972
O          -2.99991792928638    0.87493945846035    1.69442066802066
H          -2.24260472045078    0.36277799592822    2.01990454733437
H          -3.34466500418479    0.39612240045268    0.93550494272979
O           1.48835789536515   -2.19582873531335   -1.32696207875210
H           2.27258412113589   -2.65214632680045   -1.63674683894433
H           1.69500813784466   -1.87020406221034   -0.42102999153339
O           0.47025891113530   -0.00808606679430   -2.41335323286775
H          -0.62062987989927    0.17500170780702   -1.43847117762723
H           1.07450805454310    0.64078118989805   -2.03037433169717
H           0.82343611785937   -0.89508894370129   -2.14990717476067
