    19
        -40.91675137
S          -0.03433224818734   -1.36816076786903    0.63639570565621
O           1.15565766709612   -0.55509034716757    0.76039788519093
O           0.15971140610959   -2.76641904737253    0.80541600280695
O          -1.14385203729608   -0.85107775889538    1.51370838034345
O          -0.59685293907952   -1.08990255856263   -0.82255072602206
H           0.09229837025251   -1.50639090902139   -1.38687920447511
O           1.63960469497092   -2.28352158506706   -1.42793244215938
H           1.39427698132299   -3.00453908834518   -0.83299780208294
H           2.17867121447605   -1.68628996352225   -0.89822035763258
O           0.96228643816597    2.03149203421069    0.30847954428439
H           1.74155078652926    2.48639787812636    0.63142231521268
H           1.12333956030737    1.07269399325422    0.45177504502737
O          -1.47482673779677    1.54681734854487   -1.35257423348132
H          -0.59703189309045    1.94327629166116   -1.31264645646318
H          -1.33888404358393    0.59266375283842   -1.41853692196472
O          -1.50186770653671    1.60203567183016    1.29345563344584
H          -0.59491744228984    1.96054765002918    1.21456846941181
H          -1.84693190812512    1.67072896321230    0.37304249478295
H          -1.31790017332982    0.20473841204827    1.46367666806614
