    19
        -40.91821022
S           0.81021067436356    1.09596146102376   -1.44433784516772
O           0.93014100680027    1.72106043868979   -0.13553956253592
O           1.42184577494191   -0.24383937373659   -1.43294347833174
O          -0.53673774310701    1.08788833404812   -1.95365596290020
O           1.69277552279419    1.94609066456975   -2.43762327446406
H           2.56243384046553    1.87111589137878   -2.05673653605955
O          -1.98689279554883   -0.43428484562733   -0.41783472159337
H          -1.64071503021546    0.16541028894896   -1.12219228283975
H          -1.83539799125621    0.05217160602584    0.41088582538364
O          -0.69698879975429    0.84698637312720    1.64078768348733
H          -0.05309997839274    1.20916521876690    0.96451915471579
H          -0.84892275963889    1.56595618096094    2.25644948682999
O           0.36415799575758   -1.56377015120149    2.11687282434627
H           0.04594748516274   -0.63432764368790    2.07876856051979
H          -0.22022314975007   -2.03754831458234    2.71178999840940
O          -0.00440330952209   -1.96619838238831   -0.40351681372315
H          -0.92534625964943   -1.45118558253710   -0.45176499498880
H           0.66611958809432   -1.29134814354647   -0.89957184366921
H           0.25509594839324   -1.93930402026519    0.57564376257596
