    19
        -40.92136404
S          -0.43607623889337   -1.31343510634895   -0.08759343959660
O          -1.53555595287225   -1.79993556998222    0.70821300738967
O          -0.86102497535640   -0.29658302105171   -1.06590879227946
O           0.69459830183433   -0.84554310176391    0.68202627434076
O           0.08317461292103   -2.53312589011964   -0.96136236543546
H          -0.68847614743249   -3.07903736894573   -1.08313919517926
O          -1.39068329383901    0.34626129688674    2.23046000697286
H          -0.58934227863312    0.15490985225442    2.72579815096929
H          -1.60765342549117   -0.48891802911233    1.75726797857174
O           1.51757873291957    0.35179480001364   -2.12840152722204
H           0.60365051527643    0.08776175987970   -1.91114085981622
H           2.02209326548009   -0.46136508169930   -2.18687599611686
O           1.61235678919692    1.56895767409646    0.24050465489271
H           1.50806570699826    0.65333462017970    0.58692741418280
H           1.79957845168694    1.41593091845366   -0.71191118350942
O          -0.84999133564959    1.84630386859478    0.23833860153535
H          -1.13465215907914    1.41805706656221    1.12398838733412
H           0.24251001868060    1.90089278618547    0.26669307486804
H          -0.99015061795619    1.07373854564984   -0.42388419179234
