    19
        -40.92136399
S          -0.07119984699844    1.25996181273107   -0.57228647212970
O           0.49228379381087    0.07945896837081   -1.18751489508610
O          -1.27685157256161    1.73896944851320   -1.20151209791149
O          -0.23659241015756    1.06662875401007    0.87922760215622
O           1.01644122660201    2.40821176749257   -0.71275581981886
H           0.50556565933480    3.21227394007510   -0.74024603845906
O           0.98591892750629   -2.01362789513231    0.31010920436017
H           1.59197002456330   -1.53896231094404    0.92091696728412
H           0.93611644145706   -1.40093063559190   -0.45879592275741
O          -2.25409693878948   -0.70853446824615   -1.20301173308918
H          -2.06593557632807    0.25601791957479   -1.25569905586879
H          -1.72489736287015   -1.10738806038892   -1.89939748343773
O           2.17623266283305    0.05968276228497    1.48800388959059
H           1.33431433606883    0.54412893601544    1.39529281038807
H           2.81114596112891    0.52446632367617    0.94029666642313
O          -1.23448972967676   -1.22615444040846    1.07832260068865
H          -0.91165562851703   -0.25745274923374    1.19050587828918
H          -1.77597113821354   -1.16785137999543    0.21110085368765
H          -0.29829884014430   -1.72889869244314    0.81744303620690
