    19
        -40.91983420
S           0.30675536992560   -0.54621854871913    0.66083153847761
O          -0.82857841389773   -1.01657800984655   -0.10270869234703
O           0.85376240617765    0.68971185421574    0.16769584726532
O          -0.09808635104973   -0.38904047275622    2.13083318329198
O           1.38885034093221   -1.62344065781365    0.70915353777776
H           2.06625687196296   -1.40975986550914   -0.03486944149644
O           2.74603885937256   -0.76591715202168   -1.23748014941327
H           2.05033654151377   -0.94031405527428   -1.90930786244239
H           2.61759336132051    0.15332274023978   -0.97220807283028
O          -2.68194822537996    0.89242712269072    0.29286290139244
H          -2.09139545877749    0.15758884113767    0.04050051746204
H          -3.48534996531186    0.49057599340561    0.62994450936606
O           0.40174495602490   -0.97452477199777   -2.51397096043234
H          -0.15394199002107   -1.12103246493483   -1.72905759268551
H           0.04714216343372   -0.19802441448330   -2.95255390431511
O          -0.87559509915793    2.00388187479016    1.91840956146139
H          -0.42181024746291    0.57882848260534    2.24129302547836
H          -0.17374386308390    2.21376878677660    1.28995442425695
H          -1.66803125643314    1.80474474749674    1.37067762971526
