    19
        -40.92052664
S           0.59336166790667    0.58190462835700   -0.10884751452070
O           0.79272493669892   -0.60633976184508    0.68289930728126
O          -0.72052329914527    0.67591305782483   -0.69487277190261
O           0.86360390703678    1.83909546948413    0.72255888366887
O           1.67555958778687    0.65233080528249   -1.19004154194289
H           1.88545361626306   -0.31595645441523   -1.46258758378624
O          -1.01610061945445   -0.24803752535440    2.64155623631484
H          -0.57133795184943   -0.37525365240785    3.48218166654483
H          -0.38789703069695   -0.53231621729061    1.95100761480504
O           1.81370034372788   -1.83099867986193   -1.62478742105711
H           0.90939376905816   -1.90414180953202   -2.00684540682123
H           1.71874796639644   -2.06719341637122   -0.69452137417537
O          -0.73264108826260   -1.46698667817934   -2.32123151101989
H          -0.88409627132950   -0.71545965196526   -1.71740171476339
H          -1.00585787109535   -1.17379108662391   -3.19296455194161
O          -1.49631819752124    2.14279217691804    1.56682374423633
H          -0.03759560773853    2.12937526216481    1.12232413693545
H          -1.90084753952680    1.88922211042490    0.72875922274929
H          -1.49933032801584    1.32584143318769    2.11599056933608
