    19
        -40.92159001
S           1.24394535989805    0.72988412555558    0.31417734307729
O           1.15938739203776    2.10309217790984    0.73097322398017
O           0.67038378792617   -0.19177817710906    1.30371635975712
O           0.71194955354175    0.45258088870998   -1.01154496161073
O           2.78408227022982    0.36849223096087    0.22059035367381
H           3.18344143924558    0.86337742228290    0.92952822789186
O          -1.41066529318232    1.80402732378556    1.36266106196318
H          -0.50579682586128    2.10131149975771    1.14439658264579
H          -1.32121786967133    1.28877626983748    2.16781406442186
O           0.60839418227441   -2.07808958148969   -1.67511952088117
H           0.31253085656244   -2.14942096619679   -2.58493802557694
H           0.84182378375904   -1.13135541164625   -1.52709038070418
O          -1.93999663432293    0.31405806107853   -0.75374656282186
H          -2.01520536362565    0.93848535745837    0.00635260651246
H          -1.06971854351155    0.53367334478098   -1.14090273111407
O          -0.98536059348922   -1.73321260788089    0.29493471223258
H          -1.56048915688252   -0.94502053949462   -0.14744350827290
H          -0.42958100585986   -2.10012714340613   -0.47165771403159
H          -0.27790732902510   -1.16875427491043    0.83729886916488
