    19
        -40.91245706
S          -0.33161375531614    0.20144976556828    1.04983883151073
O          -0.26051389590970    1.12937587911028   -0.11279775222742
O          -1.41747014599329   -0.72980179210897    0.91198481495731
O           0.96420977406496   -0.44693222113318    1.23434403677876
O          -0.55967890641681    1.09855803918715    2.30453684012236
H          -1.30459256461735    1.69218337352518    2.07161225996892
O          -0.11272140569471   -2.66346519790845   -0.32106582627260
H           0.48608078386145   -2.91859853553583    0.38507367236063
H          -0.72995206736126   -2.02065332996916    0.09343667833782
O           1.18425791667715   -1.48844129563428   -2.25543898828244
H           0.70563362610467   -2.02375540738080   -1.55935673468970
H           0.52364412204292   -1.24838297950111   -2.90849270287079
O          -2.19505722548400    2.65140747055852    0.92897197313527
H          -1.65837499564347    2.18258261822610    0.26579300178428
H          -1.96683672382441    3.58193937044984    0.86378871033905
O           1.97172752541247    0.42992545295241   -0.82756139621817
H           1.88346163026194   -0.02098307842530    0.10008619171599
H           1.76087069359553   -0.34162274275492   -1.50341676936006
H           1.05692562435399    0.93521462105309   -0.72133684118764
