    19
        -40.92120145
S          -0.82294768059902   -0.35093200339622   -0.35961429147676
O          -0.27873721311631   -0.71501405532115    0.93371900344593
O           0.10532862004893    0.74089939304743   -0.95891006033787
O          -0.96941069535716   -1.42470377684473   -1.28231325741383
O          -2.15137102909507    0.37182072217762   -0.16938114562480
H          -2.05782218640021    1.15895585861031    0.48006428459798
O           0.72590316294310    1.61784045580557    1.76235789092409
H           1.20168685517966    1.89845180030520    0.97645486311374
H           0.49383265672785    0.68100018461276    1.61351914477011
O           1.61847942577042   -2.29557766845607   -0.16721522065135
H           1.16643040999517   -3.12171429387821   -0.35386713384907
H           1.01121632746525   -1.78734094912387    0.39757013941291
O          -1.81287761579236    2.23849230875958    1.52005991105508
H          -0.83569291211669    2.16576308860220    1.68430421486681
H          -2.24670436167314    2.00323131325880    2.34374420272367
O           1.52526767407478   -0.79945835849345   -2.37859953101595
H           1.78728447145849   -1.38103791296558   -1.62697127912981
H           0.80178927723649   -1.26169677355510   -2.81532616176001
H           0.73834482323519    0.26102067683526   -1.59959559365113
