    19
        -40.91893385
S           0.12333886898789   -1.46747298945940   -0.92338197443512
O          -0.98486328701271   -1.28850337831810    0.02713184226298
O          -0.25710055968072   -1.12706488791236   -2.27085276121170
O           1.33037423390455   -0.82421513483213   -0.44290650964671
O           0.43177790950558   -3.02492010755687   -0.92430917015057
H          -0.17156345922745   -3.36297338841398   -1.57924008527944
O          -1.35256381511889    2.29760136875497    0.24218055642701
H          -2.24299612677419    2.27461680590842   -0.11371472943740
H          -0.74858562848142    2.05202043247473   -0.50910838541165
O           1.66814825076483    0.22812532869479    1.89972295129622
H           1.66514402770586   -0.15980722556394    0.98642258517695
H           2.08419665015614   -0.42287902568411    2.46771817243602
O           0.20455930191182    1.40090885367015   -1.66913165868940
H          -0.07100736104398    0.54181662002103   -2.04855912651802
H           1.09493161867548    1.23940052922045   -1.34288440226133
O          -0.86384949114322    0.38664045547567    1.82451250075674
H           0.14569189204921    0.41191420047251    2.00111863757854
H          -1.09243532522406    1.23702135777956    1.27856379577427
H          -0.96319769001412   -0.39222980475002    1.09671777133856
