    19
        -40.92217259
S           0.63114143797957   -1.22040940692547    0.13718246042374
O           1.26604451927147    0.08010120519337    0.01465561064329
O           0.91023999652889   -1.93914525910025    1.34718008760831
O          -0.80297265676933   -1.13356649694214   -0.16579802362769
O           1.25058353226440   -2.07927090071669   -1.06183126449624
H           1.32023672425688   -2.96315490133339   -0.71342592261730
O          -0.22854398590802    2.03966005957784    1.06929667995046
H           0.61827485338938    1.65116717688963    0.78622562090194
H          -0.52408745609709    1.42996337202057    1.78097813925505
O          -0.75053979459569   -0.15984314843072    2.49400598667343
H          -0.06699006240818   -0.81233352380877    2.25963839146601
H          -1.58845740256305   -0.58485980702936    2.29611283554836
O           0.64840727483837    0.86026170714845   -2.40301365691103
H           1.09159183840858    0.59421704426608   -1.56472840632733
H           0.69155318252173    0.09558157056875   -2.98040074860163
O          -1.42591770016391    1.13626003818960   -0.92691961495777
H          -1.29664027171379    0.13524286697885   -0.61738542913411
H          -1.01564862089174    1.66345492656758   -0.09123839399939
H          -0.72827540834506    1.20667345688488   -1.66053435180133
