    19
        -40.91983409
S           0.35672268569247   -0.13062048998352    0.82449425888389
O          -1.01415375976327    0.08044427242506    0.44232513843379
O           1.25297524186625   -0.26369281784830   -0.30333618484180
O           0.83260398553814    1.01829752764601    1.72056074938888
O           0.47213059121846   -1.35324395867123    1.73322897020315
H          -0.28615392025189   -1.99884617383293    1.47577691514565
O          -1.46709428370369   -2.63561052943137    0.75264247680783
H          -2.00294056378221   -1.83731974610567    0.66649430693042
H          -1.04825545601242   -2.76124222619730   -0.12744010025909
O          -0.10992543707838   -2.25913280145697   -1.52448625744509
H          -0.55452666185932   -1.83413166856526   -2.26124044933356
H           0.52977431241003   -1.61109038528116   -1.18218314600126
O           1.12339377316176    2.14842475420466   -1.48805508237445
H           2.00839529341904    2.51020971281328   -1.56917775857345
H           1.22926566163776    1.22828272668327   -1.18076026462261
O          -0.48649338000366    2.81714165745593    0.53751812183308
H           0.34924385410214    1.86250506067579    1.39286861158445
H           0.04297027166692    2.80063185884386   -0.29127292317124
H          -1.22793222826490    2.21899322663154    0.38204262741323
