    19
        -40.92174075
S           0.00357819689242   -0.03617896341021   -0.89562423935714
O          -0.15661974611529    1.31299023498199   -0.21941752674012
O           1.36383294995065   -0.50933257293374   -0.74862887498192
O          -0.99901147365320   -0.95248305966591   -0.43718169043164
O          -0.25105873289149    0.27695856820231   -2.38603179625765
H           0.59030092816256    0.67871676860079   -2.72506326432933
O           0.90302294456755   -1.32711246225886    1.79028750633048
H           0.21886520974191   -1.98362792117875    1.63514523944049
H           1.28024131871020   -1.12646308719538    0.91789340114126
O          -2.66979066749252   -0.37173979972493    1.59171698363947
H          -2.17343783007318   -0.71402126006785    0.82419791584149
H          -3.45865401284908    0.04496167412281    1.24109358736286
O           2.22547883883866    0.94483095257388   -2.78651545255807
H           2.27746357318874    0.45671117510891   -1.94396895030405
H           2.71987827697660    0.43695496796359   -3.43481164332364
O          -0.43323348531505    0.92999470522529    2.20575501967216
H           0.16299549806785    0.14988220278483    2.29965672467613
H          -0.25986341162411    1.23408058940443    0.86021320667575
H          -1.34398837509315    0.55487728743589    2.21128385349355
