    19
        -40.91058110
S          -1.39816608696576    0.62502592461656    1.19092995823474
O          -2.02886672398183   -0.53070510621323    0.61571124407153
O          -0.27201725988125    0.19463896739181    2.12173695983476
O          -0.96048834781597    1.63453616764313    0.28267466935947
O          -2.40997394239394    1.27608059045015    2.19368302988221
H          -2.80920530941146    0.55425923899252    2.67374991979954
O           1.46171068813467    1.55212097745472   -0.82602774216346
H           0.53985698042997    1.68986565785359   -0.52984766616744
H           1.88384332103075    2.41278021497158   -0.83284325659514
O           0.99302908330283   -0.44730339834930   -2.87252706954257
H           1.22712867327106    0.32805322553374   -2.35061229826999
H           0.50514956342114   -1.02780432424358   -2.27736870461176
O          -0.24635174947409   -1.95870858875476   -0.73666680074445
H          -0.53109762120191   -2.86517568093362   -0.86609898919295
H          -0.99704063578384   -1.47772883924315   -0.33172352778680
O           1.58054643046971   -0.63613110351150    0.70751826895188
H           1.77610688939842    0.13236725750322    0.12858565763214
H           0.57596558047362   -0.17559093850723    1.57078684965244
H           1.10987044697552   -1.28058021265513    0.13833948765782
