    19
        -40.92052659
S           0.01998373854990   -0.83995428131382    0.01947521671064
O          -0.13223608723986   -0.02934328275467    1.20202162773478
O           0.13433817853830   -0.07533998916411   -1.19755260660398
O           1.23435375007337   -1.76403822228041    0.14771494717633
O          -1.14796948803990   -1.82629613447874   -0.06712773196671
H          -1.96954266709494   -1.34711563010715    0.32232743616835
O          -2.90745023848635   -0.27423291171018    0.86498132900983
H          -2.88806172007690    0.35102280394860    0.10481981888185
H          -2.31750517378936    0.10720750829155    1.52580075113713
O           2.19784488164439    1.31485008655116    1.23269984653015
H           1.29153178671259    0.95737931395800    1.28881891132876
H           2.58143539511402    1.21976095594490    2.10696693166974
O          -2.25492090815408    1.15695406047890   -1.28577277673052
H          -1.33322260940243    0.83886455821894   -1.32645312861032
H          -2.63049323780934    1.01272578639030   -2.15682370360631
O           2.91623759584591   -0.17244586533594   -0.85836093356292
H           2.03145666730583   -1.26411568996454   -0.26567529116626
H           2.30649466487727    0.15081245024369   -1.53215655430449
H           2.86772549140404    0.48330448309746   -0.12570408978979
