    19
        -40.91373487
S           1.51002870197487    0.70587548926683    0.07451749594837
O           1.03087515246155    0.09512961734956    1.28573066073994
O           2.35308176862797   -0.27339725558039   -0.72765353780409
O           0.52479860704353    1.32784488650320   -0.74746480331591
O           2.56174996777549    1.79744263712201    0.48506844846834
H           3.17138958889039    1.40891226688782    1.11048971737411
O          -0.52307065786361   -1.83637892210409    0.00676550386054
H           0.01215280352318   -1.34040148502915    0.64062499991668
H          -1.43219444654179   -1.46693014997164    0.07078078166002
O          -2.84204697325208   -0.52520450434199    0.33960502755879
H          -3.47543290865490   -0.81101146955723    0.99956728956968
H          -2.42873326492820    0.29659742529431    0.68489300640418
O          -1.34008852588306    1.51031459608485    1.26264347371260
H          -0.61725387984488    1.00115635788020    1.65366223864797
H          -0.97754412363205    1.82751322084832    0.42547639125731
O           0.58030205964867   -1.13311922674344   -2.22154354938254
H           0.07315208330073   -1.56669571384054   -1.47107006572123
H           0.11439061084360   -0.31258866049532   -2.41741811840289
H           1.70444342648480   -0.70505911952767   -1.45467495047977
