    19
        -40.91277704
S           0.50203232644898    1.14489821431587    1.18446967501750
O           0.54955962823005    2.28015634900627    0.30489464395126
O          -0.79725915097093    0.44625831458175    1.13425406759788
O           1.59133951703048    0.19503138104132    1.04934135036801
O           0.61346511918858    1.71102989520815    2.66344307795172
H           0.15551931900295    2.54672799909132    2.65113433263413
O           0.57957791064232    1.46740849564389   -2.24079951168676
H           0.39561528516240    2.23187607624226   -2.78998427844755
H           0.68274581761316    1.80579935946671   -1.32882871498869
O          -1.26763905125838   -0.30215315611717   -1.44357119708583
H          -0.62729197294823    0.26508312509013   -1.92256777653324
H          -1.30000996251914    0.06972149062925   -0.54510427106454
O          -0.27438278700692   -2.61883859026473   -0.93215012665329
H          -0.97810373890614   -3.26454323645293   -1.02168137077393
H          -0.64569716398285   -1.73927472487368   -1.26525810043682
O           0.20191940171737   -1.79892835659274    1.38222036242723
H           1.02865718095443   -1.17911598397523    1.28383305837749
H          -0.46366812934439   -1.01195702736137    1.40576681182628
H           0.05362045091811   -2.24917963470822    0.43058795753726
