    19
        -40.91907695
S           0.80657863487001    1.29300102318423   -0.67794899714927
O           0.56267653953780    2.50983119359873    0.06061371504451
O           1.43235221784951    0.25694874878378    0.17098530847402
O          -0.35363464280619    0.76633077644234   -1.35908040605520
O           1.88451530619300    1.62664706011945   -1.78823128268208
H           2.46703549924481    2.26638507537421   -1.38705272776526
O           0.44391102268011   -1.74856520093198   -1.40897834769145
H           1.23375688405541   -1.44417767101472   -0.94364563351435
H           0.00769970858089   -0.91183095943554   -1.66459854638443
O          -0.30615908546834   -0.38526752023074    1.82088097308651
H           0.51991466741130   -0.13207908533142    1.21501418987221
H          -0.67863586488003   -1.26333882488829    1.40630047674298
O          -1.07135087587092   -2.45584963381825    0.59077745956656
H          -0.78479683019421   -3.31185875436517    0.91436461744803
H          -0.56710400908244   -2.28303132822451   -0.25687287028695
O          -1.70557816748556    1.51533845700514    0.92204362649873
H          -0.95742065464894    2.12978163161430    0.74945783621145
H          -1.94825709918915    1.20198513213897    0.04108138529080
H          -0.98550324080915    0.36974987998695    1.59488923328947
