    19
        -40.91857450
S          -0.98145796483038   -0.46586978069696   -0.18958923896064
O          -0.66858844592338    0.46365456089434    0.87620767758980
O          -0.77765097210183    0.21872285879690   -1.54249617298100
O          -0.27779702682043   -1.70534353903724   -0.12818750705987
O          -2.50063628577273   -0.73120217297497   -0.17728657593605
H          -2.91631875983559    0.15433307626047   -0.01729082587225
O           1.78935926942212    0.06745516544496    1.98815500943332
H           1.61565855899104   -0.48298817992553    2.75395594813776
H           0.92023176195584    0.32096219135745    1.63075441222543
O           2.41437168114466   -1.28528961561227   -0.26997223661583
H           1.55496662546564   -1.73559201172491   -0.23473399549059
H           2.46136582793804   -0.78593426763047    0.56965273155108
O          -2.98764275863024    1.70767318338774    0.56643096295305
H          -2.04541802259823    1.61048704095502    0.79587075989735
H          -3.46412642980943    1.84900947825488    1.38837503297370
O           1.67604057899692    0.46958665318673   -2.01442799728782
H           1.87740102664761    0.12552355025508   -2.88785197815589
H           0.22556160822659    0.37762968264276   -1.75389348847057
H           2.08467972752775   -0.17281786383157   -1.35367252792781
