    19
        -40.92008988
S           0.54270972282370   -0.48665455843329    0.35000808011992
O          -0.03502682311832   -0.80711956164323   -0.92556876403732
O           0.06087580967010    0.75648074974441    0.91374049267327
O           0.29645581598615   -1.62569637702636    1.34338118262573
O           2.06947949788920   -0.43894296690458    0.24208582649439
H           2.28324973966631   -0.11806699199601   -0.71297606929935
O           2.13330871853203    0.46067543097165   -2.11029847965523
H           1.81404592966162    1.35834838927983   -1.86778811938104
H           1.34232751955235   -0.03367620890313   -2.36066162354022
O          -2.54264991122650    0.16512124014931    1.34227650702262
H          -2.74551246047991    0.35227083462399    2.26112629327595
H          -1.65281071111596    0.52613220488434    1.17659428520281
O           1.02240556249166    2.54835003389329   -0.86842879114330
H           0.56452562324483    2.00880711284584   -0.19845861664999
H           1.53014926253155    3.20545714240134   -0.38786042671210
O          -1.96008413643854   -2.27798028867259    0.43221643592499
H          -0.60445195055094   -2.05018497444443    1.08091028150822
H          -2.42234508894618   -1.47576633768898    0.76253239767994
H          -1.69665210016784   -2.06755487310527   -0.47283088209892
