    19
        -40.91907700
S           0.71744534246842    1.50566315815198   -0.02169946690900
O           1.51057144118128    1.72646494934459    1.16478270895422
O           1.19275154161093    0.33117336873397   -0.78346143870683
O          -0.70453254030267    1.42005591106126    0.21920747698669
O           0.95211557621023    2.74403864904642   -0.97935659727596
H           1.86358310504364    2.99217806736808   -0.84816748749744
O          -1.27898753542243   -0.04676647149427   -1.89774871387250
H          -1.36466677921051    0.60440442265301   -1.17365546515860
H          -0.33331875259358   -0.02526010437994   -2.09351459103816
O           0.68840471151355   -1.63390361882213    0.64517609584750
H          -0.19060617319556   -1.98800324153702    0.21684567655161
H           1.00985849555042   -0.86343106946776   -0.00036050711275
O          -1.45503938759805   -2.26282755261962   -0.53636572112873
H          -1.44306925240032   -3.00568781762543   -1.14258310465948
H          -1.52983865031864   -1.43476962864327   -1.09443958565087
O           0.02870327339718   -0.00625090878721    2.46006107799764
H           0.41856393862922   -1.10666359447831    1.50072516774415
H           0.70698695955757    0.67377409169310    2.24905124550589
H          -0.78892531416387    0.37581136972771    2.11550323950522
