    19
        -40.91103763
S          -1.51636562941195   -0.18354585309582   -0.00620687889008
O          -0.71162837861539   -0.12708720957124    1.23307279292769
O          -2.02775582575370    1.13261739437177   -0.33170444226519
O          -0.78473391999511   -0.80645535344971   -1.07958460085114
O          -2.74226757432962   -1.10435240889462    0.32986295726534
H          -3.19173134207455   -0.65035563822855    1.03656241149731
O           0.09731523953667    2.48870134325789   -0.87814001151302
H          -0.06921732504820    3.39985377401033   -0.62577802867799
H          -0.77107985650545    2.01028514738277   -0.77821303714339
O           1.78887229607070   -0.96191141383326   -1.02225625205025
H           2.13595970088354   -0.81537637708156   -1.90442657222952
H           0.80182633673995   -1.03761689058460   -1.11714128071766
O           0.77248627999214   -2.50870266365157    1.41959507203707
H           0.15776773158015   -1.76552462406663    1.46223493561759
H           1.30218361446602   -2.38093962271195    0.62882161241727
O           1.42319236711796    0.94235216307583    0.61275915147021
H           1.01434143252889    1.67227600730400    0.00546451345722
H           0.55330648613674    0.49210790358524    1.03043172102846
H           1.76752835688746    0.20367429149414   -0.01535405450229
