    19
        -40.91983416
S           0.09028540122024    0.39959780453240   -0.81383964942677
O          -0.99375376020998    0.86096171752806    0.02589817527483
O           0.94305730747221   -0.56211357652716   -0.16767140009395
O          -0.48319697628135   -0.19443617341998   -2.10514183021657
O           0.91149602008800    1.58826029994915   -1.31043687891773
H           1.71915810217983    1.68612205848817   -0.68115963959439
O          -2.45854869755182   -1.35716071214143    0.43642747096564
H          -3.36733304552126   -1.19049713277434    0.17764169545079
H          -1.99901146070286   -0.49705778006945    0.39751039257141
O           0.55754563854436    1.63834611599476    2.10419408119411
H           0.43680431713205    0.95295588290154    2.76489089602551
H          -0.12476869615928    1.48693338441903    1.42760958412414
O           2.68363176184477    1.49246477195441    0.48335682806115
H           2.07210334629958    1.71808749859431    1.21879842862562
H           2.70882975337044    0.52771305717289    0.46186273551495
O          -0.72166988359986   -2.54381806822662   -1.21123300704976
H           0.09234962437913   -2.46942592979001   -0.69794117254132
H          -1.44926039015289   -2.34013363810360   -0.58127342708163
H          -0.61771837235558   -1.19679958048344   -1.92949327289235
