    19
        -40.91146844
S           0.46117250247739   -1.02912998148574    0.16118690746117
O           0.12225765792636   -1.31670953205624   -1.24155820099953
O           1.61708880762779   -0.16351525304402    0.23724134872172
O          -0.68586814556093   -0.54731809684433    0.89643336890492
O           0.85832680194917   -2.42258941496256    0.79014071108118
H           1.55971701937863   -2.74131869329277    0.22939019972662
O          -2.47007498198594    0.94665748866722   -0.29510209034971
H          -2.48759423898017    1.76880590573316    0.20062597020286
H          -1.94465325529149    0.31103045142508    0.24746741463142
O           0.62918220738564   -0.89783847774485    3.30327357659394
H           0.88642331370572   -1.81142163572182    3.16773728593068
H           0.09255398985142   -0.66255921940007    2.53653394517274
O           1.04661423672759    2.04168867210722   -0.97941921623320
H           1.32322758856261    1.27260579951356   -0.41149501238362
H           1.84396096554123    2.35146706895277   -1.41433251559608
O          -0.78747455878047    0.77593615894236   -2.17586186632859
H          -0.42411332887175   -0.18935647442835   -1.89708557798950
H          -1.58918339350547    0.91121558733443   -1.53746202199198
H          -0.05156320815922    1.40234962630314   -1.81771423655432
