    19
        -40.92343662
S           0.10366729188498   -0.80054208943645   -1.48114786835125
O           1.03372016323585   -1.60696615040628   -0.71984166479147
O          -1.28669340477862   -1.16686282586956   -1.20744328423651
O           0.32863380511259    0.62565068060719   -1.30668313738130
O           0.34777593764280   -1.10248968143289   -3.00794768569578
H           0.17105060572389   -2.03614136621575   -3.06744463165094
O           1.61989355596919    1.31478737057066    0.90807181692587
H           2.57280886434315    1.36077864254924    0.81915921873332
H           1.27185498791379    1.07994799219670    0.01954449943091
O          -1.18285285750316    2.00831337675798    0.40381888493156
H          -0.75454458386335    1.67747858918359   -0.41306953391599
H          -0.46000654124549    2.33635785381637    0.95016060222302
O          -1.79142305943312   -0.36629358283791    1.08906824777966
H          -1.72672636922769   -0.77042892842665    0.12694127007310
H          -1.69854745731027    0.64407433694946    0.92557294238638
O           0.52527730997137   -0.98226739993058    1.76886307926494
H           0.99848472748041   -0.12428360671567    1.74430940980218
H          -0.86289880363596   -0.67145055197883    1.52324575483607
H           0.79052585772072   -1.41966263937942    0.92482206964064
