    19
        -40.91893393
S           1.45195368433839    0.51717149337929    0.80206974261719
O           1.52844910019423   -0.10012504797335   -0.53085487411785
O           1.46198032775648    1.95643971084589    0.73474016992358
O           0.37115950214685   -0.05568142620686    1.58019891295936
O           2.79112657099762    0.09240866612420    1.54157116589403
H           3.40936617572501    0.76368074877232    1.26891900840188
O          -1.04479250555983   -2.12238835058946    0.92241980328223
H          -0.65638733976870   -2.89793744237562    1.33140537026107
H          -0.55745159322260   -1.34007459843148    1.28997073712137
O          -1.71509665845670    0.58684609817179   -1.97053530209888
H          -1.58108974943135    1.11420046760888   -1.13788737075516
H          -1.34798014345076    1.11492218029415   -2.68221181560072
O          -1.13058455600554    1.86241695891624    0.24645660556749
H          -1.32914382687744    1.31947316177070    1.01531224281562
H          -0.18401856152095    2.08791379361991    0.35114400807072
O          -0.32548720010817   -1.45231689288161   -1.41734275430689
H          -0.71574997306023   -1.83889697334944   -0.55165491516466
H          -0.96193584779762   -0.69221580950901   -1.71791494695712
H           0.53568260413392   -0.91583672819850   -1.07580577789380
