    19
        -40.91892655
S          -1.18246235877567   -0.07532142533008   -0.80772032753369
O          -0.80094020284986    0.35092879351453   -2.13687476021935
O          -0.53857436957123   -1.28295411655888   -0.35383020125215
O          -1.01427338805451    1.01359028586103    0.17296438339262
O          -2.73547512884002   -0.37132845143289   -0.84318770116622
H          -3.09830059584558    0.32383826941431   -1.38425354415649
O           1.46293942549677   -1.19649420766410    1.52688273147818
H           0.68461812176508   -1.15264042519130    2.12725407099908
H           1.10868656210546   -1.63771962208820    0.73826041331697
O          -1.08741818615869   -0.88347442481881    2.26133555971549
H          -1.35177071402790    0.03880199288972    2.19498860169822
H          -1.15630145800591   -1.22505210298904    1.35422737583008
O           1.76213247791344    0.71168418664353   -1.91484933240666
H           0.81200385798383    0.50402359465495   -2.10770640089494
H           2.01272554349278    1.41520341528406   -2.51761327138502
O           1.43190558571868    1.11460892895912    0.57210794471379
H           0.38649237174471    1.18431830350928    0.47888627093473
H           1.57069514163106    0.16584754099127    1.03878927830876
H           1.73331733430498    1.00213947431708   -0.39966110136464
