    19
        -40.91503873
S           0.27440012525951   -1.34172432249820   -1.03008488402025
O           0.16340595899145   -2.75919995438058   -1.03935389801150
O           1.05657075709885   -0.70418600419216   -2.06011572572038
O          -1.04368659256776   -0.66516077587710   -0.88256797113354
O           1.03320644522916   -0.95317343440402    0.34677480315535
H           0.84440007791342   -1.70642235233776    0.90285621004942
O           1.58019571488057    1.73062508215688   -1.45209691564202
H           1.50780203639487    0.76262664168733   -1.69036442982069
H           1.68616318565276    2.19898128826568   -2.28297876166178
O          -1.44322826111314   -1.33711994415041    1.62564053165667
H          -1.43182174416112   -1.20106223678765    0.65444059123943
H          -2.30003491264992   -1.70746806543423    1.84294472150805
O          -0.14438796583503    0.98804722837401    2.06348982500192
H           0.75428454748068    0.66549082611328    1.93545254458208
H          -0.70052743860942    0.18089829435060    2.10606021618070
O          -0.67120169897658    1.70282371742722   -0.32011245903406
H          -0.49406513508996    1.56891165073047    0.68872225973877
H           0.24990166507819    1.86489513971385   -0.76709547467645
H          -0.92137675496325    0.71221721125761   -0.64161120339594
