    19
        -40.91535419
S          -0.49135602345563   -0.37136858286157    1.90613677266248
O          -1.75462576190051    0.33834075424112    1.44864590026823
O          -0.38835549982508   -1.66626929028591    1.30198731881728
O           0.64949706506148    0.48483617513894    1.77270737901647
O          -0.76404288467943   -0.56764421494298    3.43893544078366
H          -1.39329309659740   -1.28289775365930    3.49704719845810
O           1.14841565027489    1.70572204686615   -0.49937635747541
H           1.56668546052442    2.55031134683388   -0.32234697529778
H           1.06105865229704    1.25604645277194    0.37198233482035
O          -0.49713152787779   -1.55288414718519   -1.42105487916325
H           0.42304855472392   -1.36749461072918   -1.69243397395345
H          -0.44720279332448   -1.83805640933723   -0.49380292275533
O           1.91974664818474   -0.45702568825686   -2.05989388690314
H           1.78321425382586    0.33627031816114   -1.51518676337018
H           1.99772800077374   -0.16163840607682   -2.96865837275754
O          -1.40297881774093    0.81216796433548   -0.94137714463725
H          -1.67943042551429    0.58500379280237    0.38816612920366
H          -0.56564403188533    1.31160147632422   -0.94816289342488
H          -1.16533342288964   -0.11502122414750   -1.26331430428460
