    19
        -40.91974974
S          -0.29116272023266   -0.76817683668458    0.18806442822059
O          -0.98353224296294    0.49160997075973    0.36717532527557
O           1.00186924300479   -0.62091301123811   -0.42051285583446
O          -0.16316247328841   -1.49099878845286    1.53067651810271
O          -1.18085382145164   -1.73131107164326   -0.60218362992778
H          -1.37637030639613   -1.37558959763125   -1.53878286155603
O          -0.07954169102278    1.34407066259328   -2.04428395637100
H          -0.50627678219336    1.40297884421313   -1.17504942546215
H           0.74753880249901    0.87807681519591   -1.87007058248202
O          -1.63137960315054   -0.62132284781811   -2.84895081573952
H          -2.53261427142641   -0.29197036694262   -2.88758213142649
H          -1.04190605576376    0.16997507602608   -2.74023599628006
O           0.68080957800989    1.62087475911213    2.16425221741780
H           0.18940458324777    1.90731303516445    2.93684409407513
H           0.02028833163193    1.34219566094614    1.50390787351972
O           2.13800161287104   -0.62676611759767    2.10025078925244
H           1.82172818772816    0.28682932083553    2.27092006806929
H           0.77545821672799   -1.28038041684580    1.89143282613013
H           2.41170141216598   -0.63649507999322    1.17412812501474
