    19
        -40.92135407
S           0.31611824256709   -1.36100827160388    0.69599081039800
O          -0.37832217164667   -0.71392328934713    1.80983032344265
O          -0.60652101879612   -1.89684000365771   -0.28056209295214
O           1.32234688006674   -0.48618900717994    0.11488901833435
O           1.10517023857625   -2.58030355748495    1.31318571371205
H           0.40706067614432   -3.16714311637355    1.58698644869381
O          -1.73087613248002    0.25510524254318   -1.26449135125811
H          -1.52100530794844   -0.65819762054348   -0.95645718300712
H          -0.96329228026686    0.47583213444307   -1.84449776955439
O           0.66538303059491    0.28008883930020   -2.37874679514729
H           1.04300203925375   -0.00594768945540   -1.52410232647414
H           0.79991889514918   -0.44770731833652   -2.98815790445447
O           1.10393698858071    2.08119401999881    0.71427883704929
H           1.57102772269429    2.26548049428698    1.53130734935225
H           1.34041393941232    1.16098794307458    0.45754380395211
O          -1.34649118378096    1.39213488231888    0.89959086079123
H          -1.60736510387374    1.00009193457603   -0.08723742266044
H          -1.06310937194262    0.52936702895565    1.40359982530861
H          -0.45739608231135    1.87697735447693    0.79704986445492
