    19
        -40.91833250
S           1.59071329019470   -0.47956230569764    0.46759069705593
O           0.78004625082666   -1.59135505167072   -0.05349270189692
O           2.48154471412446    0.05148415796649   -0.53372895479215
O           0.76248790791763    0.51250684352592    1.12431215579538
O           2.49899604144687   -1.11044802540770    1.60186107245806
H           3.17452144214024   -1.56898713415843    1.11149134714209
O          -1.58339312383465    0.56450421751555   -1.88042429153005
H          -0.74192791530349    1.06759157879415   -1.69611845410212
H          -1.51176398720078    0.25178251901840   -2.78414247692188
O          -1.62254895121844    0.07843398112818    2.03820325822631
H          -2.05803093595567    0.93306956093516    2.05973825005630
H          -0.66360507324395    0.25646499420857    1.86034388349206
O           0.66939661299653    1.78188799979416   -1.33667496140800
H           1.42077478721432    1.16212076549991   -1.22101056372767
H           0.57190072262079    2.18663470628747   -0.46996042434915
O          -1.65157330376424   -1.26465868515583   -0.11928226407190
H          -0.59972922625314   -1.49858122902039   -0.08862890975055
H          -1.80504258274130   -0.78735353172593    0.77423762253420
H          -1.71276666997387   -0.54553536182684   -0.85431428421679
