    19
        -40.92008978
S           0.21588080760126    0.41236851280442   -0.66040030774910
O          -0.41953887181744    1.06161253264875    0.45243092402997
O           0.41705848032226   -1.00844816572097   -0.47073532013284
O          -0.59176060484893    0.64619270575940   -1.94020534509945
O           1.55937309046442    1.08080692173900   -0.96588425202915
H           1.92363785639392    1.42515471560756   -0.06626494659841
O           2.11364345234718    1.65081675672642    1.42490014397297
H           2.28797530523966    0.72212907105533    1.69595647451451
H           1.18600411751823    1.81103539810341    1.64085140332229
O          -2.13615440391710   -1.89505571284845   -0.38475743609431
H          -2.23416691914171   -2.58979601929205   -1.03919367010727
H          -1.18289801384294   -1.70109862531981   -0.32815973753846
O           2.18620299032221   -1.01552384265140    1.57441085065751
H           1.50612126998602   -1.15336147167863    0.89027725279224
H           2.94570984666439   -1.54015143490592    1.31275348320613
O          -2.85009053917161    0.64112369109188   -0.82372564817148
H          -1.57841832276011    0.71436275072962   -1.65235860181340
H          -2.84980193624163   -0.32310373567111   -0.63188373031111
H          -2.49877761531612    1.06093595164972   -0.02801154702635
