    19
        -40.92139830
S           0.36945907662253    1.15362031814762   -0.02826824654294
O           1.36241008338438    0.22177983809360   -0.56027499184107
O          -0.93423011733489    0.90535262450801   -0.63627892933524
O           0.30800882899362    1.09010197791654    1.42973131402743
O           0.81644389445821    2.59885695771041   -0.39032957413354
H           0.83684257544624    2.57911381195780   -1.36905117332477
O           0.57372948088997    1.58002103619014   -2.80784045902032
H          -0.30330147823182    1.32677867130452   -2.48915718808408
H           1.16476896955967    0.88833834992897   -2.48287166417659
O          -2.39905088984790   -0.90246752518042    0.51702010271092
H          -1.96312880247920   -0.13740789998003    0.05669109310235
H          -2.49467887989854   -1.59414990168314   -0.14148187492400
O           1.18234940885183   -2.09820488408818    0.56047077180767
H           2.05875171304609   -2.32517832751387    0.87868394678316
H           1.28979552029136   -1.24810152116929    0.04905691264823
O          -0.50409166317772   -1.11853017639082    2.17067430271350
H          -1.37906824986961   -1.13250282184042    1.61803682121161
H           0.17781100826303   -1.66273809374631    1.61907959311129
H          -0.16282049896774   -0.12468242415488    2.00610925326743
