    19
        -40.91416436
S          -1.29564530206465   -0.78482297020995    0.77996569180143
O          -1.37960477430121    0.68375784958395    1.17508797314573
O          -2.11876006434747   -1.03490963597608   -0.35655815172604
O           0.07332602162310   -1.20389872499510    0.73599013093339
O          -1.95140858103636   -1.53071739902455    2.00866276203488
H          -2.89634927349691   -1.54402084309572    1.86941862440436
O          -0.33807588309272    0.37404523982163   -1.92008229295558
H           0.25182034152472   -0.38196178063747   -2.10513269518187
H          -1.13444736361599   -0.01632859194983   -1.53885055854666
O           1.37804270272401   -1.71886932546790   -1.62799773725315
H           0.95612961046314   -1.73623419395207   -0.75399184085818
H           2.27601538415018   -1.40962242236185   -1.49175921761806
O           1.34382890177249    2.00740650710567   -0.66325414330865
H           0.71775700470258    1.42572990187100   -1.15822111705724
H           1.08894611502807    2.90714938186554   -0.87317639632822
O           0.97627684252107    1.16525207605653    1.77877456407062
H           1.24050537894036    1.57613515540650    0.90865658567437
H          -0.42655446286008    0.98391809060805    1.51816467629369
H           1.23819741140512    0.23799166536803    1.71430315243440
