    19
        -40.92267749
S           0.43815237456246    0.57591541281239    0.78134708699760
O          -0.53717056228908    0.02185114523381    1.70872250843217
O           1.09663040599714   -0.52270359240862    0.03125325091883
O          -0.13351010541228    1.54118703201798   -0.12958405604214
O           1.56180051410627    1.28049611782248    1.59137496774933
H           1.86963428334912    0.57428371821788    2.20197296838860
O          -0.48510611781185   -1.17002506107550   -1.73034997150927
H          -1.34048824446782   -1.03349463979228   -1.17143573511929
H           0.28594145145797   -0.99416474554809   -0.98382677432279
O          -2.33591171581375   -0.49364302454659   -0.12696006493880
H          -2.64559686823948    0.38453488119809   -0.36550715231164
H          -1.78204483208004   -0.36469501628533    0.67963518214174
O           1.69469264532612   -1.06804856584547    2.75238866518221
H           0.73275236394249   -0.94404481194846    2.71556312348674
H           1.92408625194730   -1.54346867224101    1.94729641436763
O          -0.25877991625949    1.16403594423586   -2.70841395252414
H          -0.41875573881685   -0.32941273460735   -2.31273683417897
H          -0.23542191676666    1.48365174487462   -1.77277926600082
H           0.56909571725977    1.43774487787667   -3.10796037073427
