    19
        -40.92071427
S           0.15805456368124    1.38618822916591    0.50299208337448
O           0.72640671353599    1.54249549269533    1.82209022540072
O           1.07127482365813    0.83418250211740   -0.47085946522990
O          -1.09462423963778    0.60542463701311    0.53901848372429
O          -0.25275716713523    2.82920745115630    0.00790033604769
H          -0.48218052982483    3.28923377819614    0.81034002030227
O          -1.98454827379606   -0.14910779930309   -1.87656496071840
H          -1.74485027206488    0.26691764522240   -1.02465845471854
H          -2.90642482259911   -0.40180082284345   -1.80831350121927
O           0.37965667245281   -1.36838396891528   -1.72599047025244
H           0.81791454906077   -0.51923380045047   -1.48701605135943
H          -0.48963016046003   -1.08651798468639   -2.08168622677880
O          -0.19988996565947   -1.74421794778351    0.65074109688988
H          -0.71192838982804   -0.85676901858503    0.71334469638148
H           0.06570445357765   -1.75388621636706   -0.41531742035758
O           1.89867491274009   -0.79584885040572    1.72325487733717
H           0.67512323259699   -1.53546737423208    1.15256308172356
H           2.53854926365684   -0.63654104886320    1.02317247686958
H           1.53547462614153    0.09412508711317    1.94498919242550
