    19
        -40.92453842
S          -0.01689948167653    0.91834252507078   -1.21610086531769
O           1.16187263419091    1.25483808958437   -0.42528241169982
O           0.06729494433512   -0.44968720656216   -1.71446081973349
O          -1.25269529058078    1.17596799340541   -0.50708430714361
O          -0.01649988590594    1.87178707151889   -2.47538820110604
H           0.79634694081633    1.67615034266516   -2.93239715073961
O          -0.09858881124861   -1.25501652813233    1.77138131052818
H          -0.84150697828887   -1.46040200906832    1.06254374911107
H          -0.20105486834110   -0.23500770664344    1.98201834498544
O          -0.30620132886214    1.25328396898818    1.91026213892652
H           0.56413880439497    1.60879180123705    1.69441161412983
H          -0.81544533503667    1.36350391449569    1.07004119739545
O          -1.72022006007270   -1.49601458910074   -0.14287503038039
H          -2.32099959080263   -0.74313559340598   -0.09650399462418
H          -1.08876775859889   -1.24453914599388   -0.86253669528602
O           1.88859976634524   -1.14589375326047    0.22637488858092
H           0.79416661562979   -1.31903361955081    1.23126978524278
H           1.61350202994726   -1.59018541990307   -0.58415430497933
H           1.79295765375094   -0.18375014536370    0.00848076209176
