    19
        -40.92159003
S          -0.25117577993382    0.50963046225301    1.36235269697076
O          -0.02715630392007   -0.87726204176672    0.98281770386025
O           0.82855172537523    1.12719268528865    2.08309410834678
O          -0.67280987042559    1.30130322641268    0.19920422138852
O          -1.49740206721936    0.47034263475340    2.34063342153960
H          -1.41882304021909    1.27108858077477    2.85014422922671
O           2.17908887300518    1.52457457052371   -0.17746420746649
H           1.66499158988387    2.24471632432810   -0.55004455173110
H           1.85071708527908    1.41866689626922    0.73676580214843
O          -1.85769098536495   -1.93116497241788   -0.56454564292166
H          -1.28861228905163   -1.62189683281264    0.17924062770440
H          -1.65537521820482   -2.85940519207106   -0.69784027366660
O           1.52811292042297   -0.82904515936934   -1.18443078406204
H           1.99828432886159    0.01178852138466   -0.97131070790495
H           1.17475931971700   -1.11563381548222   -0.31921169230909
O          -0.73213344664831   -0.04722284639368   -1.87783435707465
H           0.27311781603832   -0.40094563570215   -1.76465879043184
H          -1.30847311225983   -0.82076081160478   -1.56090678388419
H          -0.78797156533644    0.62403340563124   -1.06600503973347
