    19
        -40.91439959
S           1.53168591304786   -0.08330944955176    0.69306152648471
O           2.44485437971215   -0.53979053722399   -0.31282598550126
O           0.87893148505096    1.19543500107713    0.35201603099167
O           0.52807750956116   -1.04998146550357    1.11811240832831
O           2.38942269682143    0.22106952098810    1.99526766428498
H           3.24950102425273    0.49845157986070    1.69081413548319
O          -2.71668744863938    0.45270623224455   -0.34105280953133
H          -3.27038083769100    1.20836363430090   -0.54756880948851
H          -1.97627113266246    0.43825310175911   -1.03251451284163
O          -0.63349609160576    0.53512550236333   -1.83666716402933
H          -0.30032088860793   -0.37773171859802   -1.98282028852574
H           0.01563385529575    0.94573674622493   -1.24219391290182
O           0.50713566535389   -1.87449306892699   -1.61598309417453
H           0.14624927683862   -2.26299475232681   -0.81382366210974
H           1.37212601971938   -1.51780009429666   -1.35137221033198
O          -1.17315184362286    0.67689837960330    1.60791923657466
H          -0.38904616478033    1.17621140818455    1.13949267484806
H          -1.92349920106416    0.58051480714031    0.85442129510838
H          -0.68076420707458   -0.22266482726131    1.62571746735140
