    19
        -40.92217276
S          -0.07947503888999    1.15042865879203    0.75997483500115
O           0.29866479016149    2.48326868909734    0.38700981888892
O          -1.14224549130078    0.55148873171285   -0.02798293133836
O           1.06445113530095    0.23698734608373    0.87729828687795
O          -0.68368592953322    1.23913045986106    2.23843560177917
H          -0.31466558700372    2.03841065558741    2.60229084938713
O          -0.20233094962336   -0.73018629383607   -2.18770437037835
H          -0.89875834469421   -0.26467758235789   -1.69149689753434
H           0.49279832726399   -0.04315457229067   -2.29026688502119
O          -1.61181000109407   -1.72648916788203    1.16570661168455
H          -1.55367441212159   -1.58236871846018    2.11220288019528
H          -1.65286919953692   -0.83194632247558    0.75575318625468
O           1.47846275535485    1.29284044423760   -1.71766139467906
H           2.30847309718913    1.04357991720673   -1.30436129133725
H           1.03681973389283    1.88005273295270   -1.07890960910384
O           0.57075043442292   -1.95630351397620   -0.15425441693276
H          -0.29329594343128   -2.12867266875776    0.34913598488942
H           0.27399180459600   -1.57967739307501   -1.11045660322403
H           0.90839883902714   -1.07271141241008    0.31528635460794
