    19
        -40.92267750
S           0.17993273743176    0.40349248979412   -0.96891447372937
O          -0.84464333387793   -0.61319406446374   -0.62277456895249
O          -0.23869581873892    1.70901460493142   -0.48025991549799
O           1.47815962104504    0.00508569120178   -0.47445954865972
O           0.24379740798288    0.44181998512551   -2.52110536443720
H          -0.65523634451473    0.75084962822277   -2.77131460484918
O          -2.23077844313174    1.26512731883278   -2.23894433965195
H          -1.79175578649057    1.78728563642801   -1.54855795777402
H          -2.53404030062412    0.46298386104258   -1.80147038432177
O          -0.46255407050934   -1.16911383128627    1.73719817091941
H          -0.74715218116086   -0.99350807266286    0.70240383459266
H          -0.19930440434958   -0.21853122104871    2.03699042241968
O           0.35285820314234    1.21939526677776    2.02575192613645
H           0.08211883190893    1.56734364750792    1.14270721826264
H           1.31402997531261    1.22094775864080    2.01571182840918
O           1.83429166618349   -2.04682375891771    1.09742013440695
H           1.87864350226939   -1.28543053918253    0.46774846798562
H           0.42857319630276   -1.66515174605180    1.63584407166038
H           1.91175554182077   -2.84159267489483    0.56602506307908
