    19
        -40.91923802
S          -0.43255511187207   -0.12616867375501    0.86232590379722
O          -1.23382999662658   -1.22391722575941    1.28675525584049
O          -1.07690146035524    0.84382228166061    0.01030658623342
O           0.21005874210989    0.59287673852672    2.04664517322609
O           0.81260346104340   -0.68517925548303    0.09615585196969
H           0.50004099617643   -1.54814006251756   -0.36898864472157
O           2.53310282839930    1.39840474222845   -0.51470961117402
H           3.40388598562293    1.19713022602066   -0.16646777550507
H           2.00755327667193    0.58617069568428   -0.44428756261711
O          -2.25912567099981   -1.02357388306924   -1.53022691134100
H          -1.89881836774793   -0.22036297760671   -1.11358773722466
H          -3.04352303876124   -1.24825847076858   -1.02416171945353
O          -0.30325947740871   -2.71065223780020   -0.90247520543671
H          -1.03218114075342   -2.20741551472975   -1.33979606997976
H          -0.68351993035995   -3.04490855097288   -0.08255144980180
O           0.68176424947578    2.76442409962078    0.85908592574114
H           1.45357943771328    2.49571825194467    0.31469709972976
H          -0.09436873328258    2.62374593315921    0.29939593635413
H           0.45549395083392    1.53628388354807    1.71188494442601
