    19
        -40.92343663
S          -1.48901621022683    0.00213181366794   -0.79235207252131
O          -0.22218955454316    0.31303146056028   -1.43537619381315
O          -1.52157512514808   -1.33869590681199   -0.24812983205737
O          -1.84843767340858    1.00660855956994    0.20981727648546
O          -2.58802904252787    0.08796669371154   -1.91776746680980
H          -3.38985380462045   -0.10745878290546   -1.44293524830616
O           0.35525039373420   -1.32851921822277    1.57418841458480
H          -0.44398792767926   -1.50134654855958    1.02160248334921
H           1.09749327491839   -1.40360934796059    0.93860627002720
O           1.84405880478183   -1.16055908668163   -0.65568026136511
H           1.98598818025554   -1.95674142731160   -1.16948538524846
H           1.07630183417470   -0.70285606475337   -1.06405446285177
O           1.62764161985138    1.71273068442362   -0.11605255845645
H           2.33021624729903    1.05629033301840   -0.17908373314439
H           0.95576698078271    1.42989384983663   -0.77077920589517
O           0.05494614302627    1.13494668831577    1.79997205095927
H          -0.82146713385401    1.18335173007689    1.23128059206931
H           0.22466567917028    0.08109816706369    1.86008508395755
H           0.77222733403027    1.49173640294107    1.15614423904485
