    19
        -40.91855633
S          -0.99427483308522    0.59169642965386    0.13005702869469
O          -0.63205836390443    1.12402145423632   -1.25783079088917
O          -0.69225730866126   -0.82542611418736    0.18413229209587
O          -0.40283957542033    1.36948490598486    1.16767625962449
O          -2.52573545594510    0.76872956234917    0.16553132377678
H          -2.89050339886259    0.04133383127679   -0.40054845401023
O           1.97024438432967    0.72993023882868    2.33256318996957
H           1.78201713971718    0.53123306687128    3.25133661715520
H           1.15496350879685    1.11191120387435    1.96276534454699
O          -2.91039227008757   -1.46866751915773   -1.09733232100406
H          -2.00123624588704   -1.56431163992155   -0.75675849857235
H          -3.44732519474058   -2.13059892103988   -0.65465774702367
O           2.03926810539583   -0.96760584902500    0.22869074759358
H           2.24230459703619   -0.44113243076314    1.02701440947178
H           1.08712817443503   -1.14938443742296    0.28089307528457
O           1.82394793778825    0.77929256488978   -1.66526082420798
H           0.38370085088128    1.05167265226708   -1.44682934087098
H           2.04656154645268    0.11136187578697   -0.94632109851818
H           1.96648640179874    0.33645912548513   -2.50512124312545
