    19
        -40.91923796
S          -0.15578000298760   -0.94726123115932    0.15205509407449
O          -1.20246213767922   -1.75700066927420   -0.37332807991256
O          -0.50127312314195   -0.10151519297580    1.26898631644722
O           1.07304005445797   -1.77950012288789    0.51263340831152
O           0.38751394981305   -0.02982444793258   -0.99384805629218
H          -0.41464262275649    0.16980515051063   -1.60659660536462
O          -1.78446304737673    0.25914856106006   -2.23648948023018
H          -2.29116883531129    0.59640016669012   -1.45838592602223
H          -2.00651325362024   -0.67660613987137   -2.29636115701393
O          -2.82226801379488    0.71098835884078    0.16833454753978
H          -2.02278453068641    0.56033618718275    0.70372950259493
H          -3.42113930655045   -0.00608753469902    0.38992522082996
O           2.60038416536641    1.36837064247848   -0.08650303773578
H           1.80745027314658    1.01760207312370   -0.52137939690792
H           3.33737363511044    1.20421871736495   -0.67810165876801
O           2.11110083628204   -0.11328698579128    2.09205210070532
H           1.61284724955014   -1.21828665503781    1.18785976574040
H           2.46309193813145    0.53651542242637    1.44543403830253
H           1.22969275206239    0.20598370995237    2.32998340371296
