    19
        -40.91923797
S           0.90009559715712    0.06978147593605   -0.36243411491717
O           1.40377480324192   -0.49650949676354   -1.56778161117491
O           0.78126398710502   -0.82486073220538    0.76344743224720
O           1.69842756277283    1.30260492652882    0.05675253190447
O          -0.51648579663263    0.67109409312294   -0.64858421030369
H          -0.93822066582551    0.07958419295292   -1.37718162967299
O          -1.22868238584581   -0.99332447836106   -2.40015596387256
H          -0.44075029982840   -0.92121983454318   -2.95022328366400
H          -1.07860559657606   -1.78976743771207   -1.83557280271251
O          -1.41979658611786    2.01637575907073    1.59830963199745
H          -1.28072763665466    1.52755586842730    0.77211638017990
H          -1.64723521656203    2.91575491170059    1.35449174449919
O          -0.29913672503166   -2.81278300757215   -0.69933550228860
H           0.47303661161173   -3.23614259869653   -1.08205219722807
H           0.04334865760448   -2.21179966889032   -0.01369779545502
O           1.00701548723262    1.29775178897212    2.47982028661754
H           0.92715272191872    0.33426626098151    2.45175175644181
H           1.52416680511347    1.42953170271785    1.06447118740327
H           0.09135867531148    1.64210627435655    2.39585814998909
