    19
        -40.92085428
S           0.32082298600834    0.65198788041320    1.22582620378146
O           0.63769900701448    1.12334493106899   -0.09960059482102
O          -0.47757999410905   -0.66801477286114    1.10266788087807
O           1.44269298936645    0.49116389388468    2.08953270917688
O          -0.72506082234896    1.57957139222791    1.86665387414139
H          -1.51864369674114    1.52008505667622    1.25898474382583
O           2.72107617047031   -1.04578554501724    0.21917851411792
H           3.22047624900706   -1.70612086490087    0.70572532331529
H           2.42171941871764   -0.39342001399928    0.87381376839700
O          -0.96815458024626    0.46648525258766   -2.00934530233381
H          -0.94613992938452    1.06864003259600   -2.75535217924059
H          -0.28767735979170    0.78834309792468   -1.36996569465049
O          -2.58076106933689    1.00420720186984    0.14230776129044
H          -2.84766798952994    0.14668619206904    0.48422694849675
H          -2.13710147955481    0.82465786028081   -0.71264493020772
O           0.42658487953248   -1.81935528739709   -0.94171820279280
H          -0.15630047062660   -1.23352039797012    0.29746243247113
H           0.09423297936641   -1.21921149071029   -1.62411103866525
H           1.35978273266949   -1.57974440864867   -0.75364221748360
