    19
        -40.91904983
S          -0.29086019167602   -0.89813423671385   -0.68694474456205
O           0.36728559458768   -0.99179729799112    0.70323909373779
O          -1.61936904466468   -0.37035506249332   -0.50227401656681
O           0.55917489060923   -0.18724653831399   -1.58470221459934
O          -0.39459873980154   -2.37615641272071   -1.13826882030725
H          -1.03285844576020   -2.79056352385470   -0.50601516614273
O          -0.80415119334762    2.20655937897650   -0.85213000354390
H          -0.34892507836142    2.03896265120137   -1.68206565166689
H          -1.29330053991609    1.38924122238915   -0.66634092896391
O           1.21223659355998    2.54349107412999    0.89252226762063
H           0.46113773366630    2.51791027700888    0.25801448814525
H           0.83173357315778    2.70000988862936    1.75795185555741
O          -2.07961787214393   -2.67162635941449    0.82658354278569
H          -1.56330135088649   -2.55443411300527    1.62879699302438
H          -2.33078214158320   -1.78250065267642    0.52891249704347
O           2.47230151691450    0.29083132885442    0.35196376414572
H           1.30577483322337   -0.52263321042744    0.66191924927442
H           2.39585135942997    0.26791131164487   -0.61062691825324
H           2.15226853300023    1.19053027477609    0.61946470326988
