    19
        -40.92135410
S           1.44721326423030   -0.12154849781784   -0.57275782204079
O           1.66875090078293   -0.81050640524493    0.69920537716894
O           0.81890727755377   -0.98033761987165   -1.55250113347824
O           0.74696150353015    1.13862585955852   -0.38093049548382
O           2.87530884790733    0.25539174132704   -1.12832816185339
H           3.25187802063807   -0.59355765158161   -1.33862412812630
O          -1.73305419200874    1.07204077046841   -1.42138555323026
H          -0.82717637243957    1.23537998875939   -1.09355472940413
H          -1.68513429380782    1.12357061553573   -2.37752484627768
O          -1.55193678781500   -1.40657496363970   -0.52213228320903
H          -1.90667475907960   -0.52830227368870   -0.79965592210174
H          -0.69807908106307   -1.46595406672953   -1.01238745902058
O          -0.48606737208256    1.43497296043457    1.94131055140648
H          -0.03226094246217    1.48752504555253    1.06958815059983
H           0.12000433622737    1.80209407018102    2.58748530128460
O          -0.57701616739646   -1.10724191786673    1.73273650911464
H          -0.71644040694880   -0.12498721469819    1.95979314915726
H          -1.12380921771766   -1.29659364570837    0.80521653589656
H           0.40862544194073   -1.11399678488397    1.40444694957290
