    19
        -40.91103817
S           0.49711355311265   -0.59147469263448   -1.32078016072220
O          -0.40687390368193   -1.31181022881817   -0.39868266713617
O          -0.27114015623523    0.11095598351482   -2.32886235810203
O           1.42048665274586    0.24876042192045   -0.60181547706849
O           1.33373614348396   -1.70540417764013   -2.04390945638444
H           0.68192455003770   -2.23723863071697   -2.49102184843873
O           0.93041821041287    1.00112777705497    1.81544068834543
H           1.21388859863567    1.91047239811683    1.92880205174302
H           1.26701552678270    0.71014297159257    0.92597050942421
O          -1.54755634295473    1.90037430124618   -0.98026691149153
H          -2.38237157305702    2.05744216257823   -1.42752178172272
H          -1.01948100607511    1.30488079290143   -1.58011684764078
O           1.05905547906218   -2.05718749993574    1.88307027231637
H           0.58255034508861   -1.95940443064162    1.04917949783508
H           1.27366142750253   -1.17005968609556    2.18158336774023
O          -1.41513566089530    0.41071251305340    1.05249154119275
H          -0.55420905703724    0.70251862314693    1.53489486933936
H          -1.57966410254390    1.10787013012459    0.30659051930484
H          -1.08341867438227   -0.43267874877020    0.49495418144617
