    19
        -40.92343658
S          -0.65964856536357    0.57003425210637    1.44392795250356
O          -0.40261666933534   -0.79951925622770    1.83539451396432
O           0.47460232299113    1.17963048067827    0.76793500272759
O          -1.88787255988300    0.69129158645644    0.65709056160131
O          -0.89207984633990    1.40708948526251    2.75801926278891
H          -1.64656746289207    0.97784467644613    3.14935337440818
O          -0.01931227109970   -2.04448280213037   -0.43331808335166
H           0.89410791027411   -1.71390453470591   -0.56342191639535
H          -0.23065334613823   -1.78749497169104    0.49580139278161
O           2.18964557900902   -0.51851979516093   -0.33855053066926
H           1.65463986294764    0.12172658033254    0.18058028462472
H           2.90759249332202   -0.79332622671601    0.23333358978000
O           0.51614491031113    1.31669333542016   -1.89676698310546
H           0.49931614197793    1.55208194034759   -0.94578463148488
H           1.34150861520488    0.83515661556282   -2.02080476140155
O          -1.41040048311144   -0.31305390126597   -1.56351523828521
H          -1.76381329625790    0.12475311218537   -0.68183093228101
H          -0.69510532402773    0.35122653291311   -1.88482567472997
H          -0.86948800160316   -1.15722709981739   -1.19261719347598
