    19
        -40.91483114
S          -1.02706641453194   -0.90116715505944    0.57724848545332
O          -1.80630665518381   -0.06185670204350    1.57958300133554
O          -1.25218151241409   -0.41719479040064   -0.76002511723480
O           0.33053128077424   -1.04906276900557    0.98005806141485
O          -1.73061457740296   -2.29784740446627    0.68848206590349
H          -2.59782619910102   -2.22083586849605    0.29516959156777
O           0.67858725346991   -0.80791618317109   -2.67325442788265
H           0.47704442007082   -0.23148713806086   -3.41304889764613
H          -0.07130586523447   -0.74359803117781   -2.05946687221548
O           2.28344613038267    0.10907209841176   -0.63986279850640
H           1.91311036819468   -0.47664510194321    0.03346937028473
H           1.98268677805475   -0.26614553803405   -1.48632918049847
O           0.31127014069793    1.83956400684847   -0.24195979231556
H          -0.37418105107719    1.27307010052586   -0.61610601419975
H           1.16431265232195    1.37335861259022   -0.42838350376273
O          -0.02188543326180    1.49816298280279    2.29699460228691
H          -1.12685641763073    0.64217465549423    1.99008577690753
H           0.70888457572694    0.90958585382808    2.51202572273539
H           0.15835054615673    1.82876838135364    1.36531993637468
