    19
        -40.92136391
S           0.46332774802850   -1.13988731547533   -0.63883471737021
O           0.97493769385851   -2.26711161370346    0.10034662434144
O          -0.92087260868484   -0.82625777852282   -0.36448727212142
O           1.31117280984543    0.05645750769818   -0.49176236700562
O           0.54595910446496   -1.51570776536742   -2.17930699627125
H           1.28460413677475   -2.11546719647956   -2.23418525213766
O          -1.54427423403028    1.61365960224686    0.35637763378778
H          -1.18005950412667    2.03628776697729   -0.45275043838112
H          -1.60872351985016    0.66751010243589    0.09118894310757
O          -0.05045862522624   -1.28273216502194    2.31953963389832
H           0.41915153479739   -1.77430335795704    1.60801455403382
H          -0.98431273283900   -1.45716678558920    2.17273284707800
O          -0.13703436948809    1.82743843901148   -1.89579300977624
H          -0.49910724218642    1.35060833972279   -2.64462782176175
H           0.52346903533341    1.23359657082113   -1.49159718493200
O           0.51388475352959    1.11190987020329    1.64046511537083
H           0.29074951876196    0.22704735976681    2.10446609393439
H           1.01999286594913    0.79066302808561    0.80694279183950
H          -0.42240637491485    1.46345538112903    1.19327081234311
