    19
        -40.92453850
S          -0.56616227783041    0.60375228727331    1.27950564585453
O          -0.29619343373914   -0.80286604763627    1.55371658047959
O           0.66719349219097    1.31602170632983    0.96370186016110
O          -1.58680153349640    0.78652736105443    0.26904364085640
O          -1.13616820579920    1.23533185664180    2.61039720109675
H          -0.45297068776041    1.09850742229581    3.26022815614094
O          -1.28505554929636   -1.77553323038137   -0.64591890422747
H          -2.01270694819769   -1.15276696199711   -0.75795551128132
H          -0.95262396599466   -1.58208076220002    0.26606768491100
O          -0.06554652669677    1.57245246562722   -1.68352477895336
H          -0.79503443605221    1.39778692747350   -1.03944501784679
H           0.60212833295755    2.02153649747496   -1.15155666365231
O           0.69036205318079   -0.82322704303695   -1.88892137510067
H           0.40794919133651    0.18256312722088   -1.95521502242355
H          -0.14566439294831   -1.31270709839648   -1.49246228776968
O           2.09542069563018   -0.70678021228537    0.19891533980566
H           1.39064874410942   -0.84462609471773   -1.11281764285965
H           1.71756652302098    0.14904457582696    0.52620717548312
H           1.72365891533427   -1.36293675658801    0.80003390934423
