    19
        -40.92113580
S           0.73785507188876   -0.02292339987969    0.93703984096886
O           1.06385430074217   -0.46305519070915   -0.40621312826383
O          -0.75746245580155    0.40752844416919    0.93507989850071
O           0.96931657689451   -0.98136613643814    1.96022479640845
O           1.45796444650147    1.29030669716844    1.22756628162074
H           1.00612442362142    2.02105430812765    0.66699359658935
O           0.54523915462664    1.29742429400606   -2.31885685055039
H           0.74215665812628    0.56379221498009   -1.69878081589294
H           1.33691720165755    1.42612527382232   -2.84499427064716
O           0.13548172186685    2.87775624736772   -0.23796294262597
H           0.23914177594955    2.43830584193960   -1.11788044312053
H          -0.75497834016571    2.67042597149718    0.06055190353518
O          -0.60178203778192   -2.56371447375857   -0.73591345640725
H           0.12486897165248   -1.91705548527359   -0.68209718797211
H          -1.02137774062888   -2.43451317518729   -1.58900673135374
O          -1.63766698118938   -1.85342687157635    1.62454201605227
H          -0.88115942386153   -2.01886625440574    2.20185574698306
H          -1.27668772012441   -0.42248178352776    1.23430859391396
H          -1.42780557398355   -2.31531653233455    0.78354314227627
