    19
        -40.92158905
S          -0.23993195082978   -1.37466555477025    0.48276436496319
O           0.73897157603562   -1.99320046898543    1.33454505953406
O          -0.91454251553256   -0.24470330092848    1.13568169746117
O           0.24164287648487   -0.99128999576443   -0.83562711389373
O          -1.36575412706381   -2.45535117934076    0.20740837328077
H          -1.44492017663350   -2.92605612861788    1.03149941247368
O           1.78563462800770    0.37834139187209    1.94282348813891
H           1.56227597654710   -0.56160708790456    1.79598148289148
H           1.10311655401451    0.71299712343227    2.52915621201860
O           1.56944397653828    1.30196974424826   -0.52256851602285
H           1.35746918790115    0.40681828736554   -0.85308716342593
H           1.86634333053772    1.13839471531286    0.40397259791666
O          -1.44481855733704    0.38152694498374   -2.29397344608388
H          -1.06279215524605    0.52228555675412   -3.16262816359191
H          -0.89503440555334   -0.30745833843487   -1.85157672376998
O          -0.85460386751657    1.80536497379304   -0.25303651594686
H          -0.98492462461174    0.99834770594857    0.41409264922600
H           0.20829212881704    1.77591672124397   -0.38406262906137
H          -1.22586786459341    1.43236887980386   -1.12136506613009
