    19
        -40.91792408
S          -0.13664802486104    0.49259576132256   -1.61122143009073
O          -0.76613498540197   -0.80057438559302   -1.81490114158145
O          -0.96882668224439    1.38778048825451   -0.82478470002792
O           1.20883437058367    0.37806576636152   -1.06840750178873
O           0.02634349625770    1.14623147807820   -3.04450074814756
H          -0.84223675816231    1.03731338144830   -3.41892429691601
O           1.51877052727355    1.07807090330526    1.38694954283173
H           2.46536983897199    1.09313385111509    1.54063242434954
H           1.39571686628941    0.96416186138797    0.40441368613658
O          -2.06364821337569    0.25810004951546    1.19317727372604
H          -2.33639805074196    0.98647147913114    1.75593994804996
H          -1.71564513517346    0.67979224292530    0.35360915601068
O           0.65417028529385   -2.14673708242141   -0.16174974057774
H          -0.00723268562777   -1.79936025573569   -0.82153945710569
H           1.47340304369228   -1.72142046222752   -0.44239312262154
O           0.03623775258163   -0.90523278184554    1.92634831594928
H           0.68199179315178   -0.10873900258403    1.84719182717441
H          -0.89849849964648   -0.49167513528079    1.69825298651569
H           0.27443107114444   -1.52797814716274    1.10190696811265
