    19
        -40.91739554
S          -0.73545429114801    0.92548608095784    0.48101652496777
O          -1.51093845272762    0.06118518089913    1.46203288984121
O           0.67073615704063    0.92874580767524    0.79600871061641
O          -1.01153301905565    0.55286130161197   -0.88113202909700
O          -1.34587398102399    2.31981359513451    0.77835851214953
H          -0.85126426148984    2.92090824348950    0.18033776641706
O           0.43222614738684    2.99464679304053   -1.02418054822583
H           1.08663484218615    2.49135893060866   -0.52398691674025
H           0.12445955925591    2.41213652847418   -1.72608540435206
O           1.61974001722932   -1.58629532201656    0.38341679065471
H           1.55134231173977   -0.64623629118335    0.61965940733358
H           1.44628674398781   -1.61142595126323   -0.57972448029565
O           0.55677690301385   -1.28405844295671   -2.07894272440092
H          -0.00950434059773   -1.97798257660935   -2.42184285025335
H          -0.03897312107060   -0.59079799332342   -1.73832333942903
O          -0.61747074056292   -2.27936945606291    1.44333195000858
H          -1.19848903121470   -0.93770957280661    1.45419889765407
H           0.29360424581353   -2.12849158765515    1.02881252888300
H          -0.46230568876451   -2.56477526800267    2.34704431426538
