    19
        -40.91833234
S          -1.16673202371186   -0.60999724499640   -1.11499199776042
O          -1.71824945357446    0.54208795011318   -1.78353306988169
O           0.27375744822234   -0.73415911876833   -1.21895340770596
O          -1.61054309065052   -0.69645962995738    0.28517718281502
O          -1.76809141450834   -1.88848499638116   -1.83130614242367
H          -2.68696328298609   -1.66436960444757   -1.94311848219823
O           0.71683286166786    1.89525553683855    1.49883399326637
H           0.13503691402156    2.54699907360168    1.89422998287968
H           0.60082279369140    1.98583369734193    0.51203924337216
O           0.33421927688536    2.03314426644846   -1.08662755659936
H           0.98324521010913    1.45766588820084   -1.50151932727984
H          -0.52607951292504    1.65150472199609   -1.36319530938410
O           1.80159775589098   -1.79028403506639    0.58733203944618
H           1.25750610914973   -1.53147316441072   -0.19993448377037
H           2.67379945212574   -1.41484972400026    0.45008236766648
O           0.12394683253179   -0.52038387363399    2.01304446646322
H           0.86847560273254   -1.08637844848341    1.59467141306132
H           0.39665819744943    0.46564977795066    1.89152613660218
H          -0.68923968613364   -0.64130108236717    1.31624297143896
