    19
        -40.91966061
S           1.55899591215647    0.62256708339502   -0.33741767898256
O           1.39692327716571    1.12478261336795    1.03579802756194
O           1.83734993570359   -0.80528530594564   -0.33399017842780
O           0.44051634254901    0.98263452359558   -1.17309894086560
O           2.83521887738642    1.34210813979726   -0.91327886034623
H           3.52645247699858    1.05450947267447   -0.32487635713724
O          -0.20333675830687   -1.94854750029346    0.70879500924170
H           0.07815685641172   -2.69982559475904    1.23426569191527
H           0.62102943168236   -1.58626767211363    0.27096413974741
O          -1.54385483842478   -0.88930376047662   -1.57139613426265
H          -1.27371199841425   -1.58059514070079   -0.95601037937713
H          -0.74364453048471   -0.36754769644271   -1.74787713417368
O          -2.08399825891333    1.30424530027553   -0.20548298617324
H          -1.31522084538937    1.71065075936081   -0.63814013933780
H          -2.22776097974812    0.48676603672047   -0.74227357110723
O          -0.83672306539668    0.33627491322582    1.72624606611105
H          -0.72448855948304   -0.62797577424977    1.44631090642154
H           0.12488593052825    0.75093090958435    1.53910800241361
H          -1.46678920602367    0.78987868298467    0.98235451677202
