    19
        -40.91209445
S           1.71538758823651   -0.45161790609481    0.79253753473061
O           1.44001867410469   -1.65442005269779    1.50916019729630
O           1.57833010580889   -0.47229829811390   -0.63319544474875
O           0.91172971286554    0.70208918640384    1.37735225530345
O           3.21543564287130   -0.05178985064180    1.09817262046877
H           3.41980821519862   -0.33202790976164    1.98849352324193
O          -2.55359461514018   -0.68483693098022   -0.18819953371470
H          -1.78613709269783   -1.29995409623113   -0.21396245968821
H          -3.25173374725667   -1.11966069308344   -0.68132056542426
O          -1.95080912639261    1.78214553458741   -0.99732045682600
H          -2.44952599639912    2.35499946706080   -0.41219190299645
H          -2.16093088766230    0.86024943983499   -0.71699841095379
O          -0.43256054290102   -2.30958535117630   -0.38446590399702
H           0.21570090111298   -1.80154849025869   -0.88979463181430
H          -0.00199222520950   -2.45454296530438    0.46831417477672
O           0.62887443595509    2.08551784536292   -0.65481804642649
H          -0.34943451115240    2.04241601520599   -0.84984532035687
H           0.77021976723247    1.40055940303207    0.59166644520426
H           1.04121371142602    1.40430566285230   -1.20358406407161
