    19
        -40.91437283
S           0.13079537238102   -0.09863659524361   -1.00957002556898
O          -0.68980371813529    0.93433954450990   -0.35365220319314
O           1.48122576471732   -0.10947487515267   -0.47133141144669
O          -0.53750164934740   -1.39046428944865   -0.92664835154159
O           0.22155840629324    0.26005516823926   -2.52382863304599
H           0.93900297056400    0.92625435898172   -2.61317315866218
O           2.42492222198911    1.66945104270281   -2.18417266485818
H           3.19864677781596    1.35092788819620   -2.65496418130444
H           2.33738959646438    1.11595887554121   -1.38422870020111
O           0.69671133869594    0.28083495870619    2.04853644614498
H           0.39924978120206    1.18849685661069    1.94243118016650
H           1.10641999170786    0.05055337332805    1.19090845149503
O          -1.43728593654316   -1.17982042959873    2.52695415769226
H          -0.61151278641483   -0.62990593614939    2.45311152247878
H          -1.14938318534609   -2.09503550884634    2.54377196458274
O          -2.49237100204600   -0.56952532299679    0.31297132512625
H          -1.91475300826130    0.29103785658241    0.09579993362871
H          -1.89180503103285   -1.17204918522947   -0.27544539217951
H          -2.21150592468745   -0.82299779071754    1.28252971069731
