    19
        -40.91907727
S           0.81457208242948    0.06794590819582    1.45292239647927
O          -0.46102559719184    0.73724349763517    1.34215089300354
O           0.76481339576579   -1.19956908972990    2.14335210739124
O           1.45752096375623   -0.05890075816948    0.12762419614431
O           1.76656539440489    1.01822545464205    2.28736362605845
H           2.43637947602647    0.44516340036487    2.65129008461630
O           0.12581728340305    2.13322872515351   -0.81987425779573
H          -0.27663695401108    1.88375694698132    0.03510243310548
H           0.98536278811988    1.69308634309377   -0.78691538385587
O          -1.44831069589802   -1.78951216428636    0.86608494873727
H          -1.82233076097352   -0.91470597532563    1.03392025344192
H          -0.68137605556257   -1.83275391045255    1.48000612202301
O          -1.17976021627387    0.54003601643424   -2.41743491097661
H          -0.92481515234812    0.72496003642312   -3.32315077472601
H          -0.77240192871843    1.25744667671978   -1.84975827681906
O          -0.10357277450418   -1.41951752278313   -1.23942999293626
H          -0.74348158509897   -1.69772048758289   -0.46756322292670
H          -0.59422019865642   -0.68764051835604   -1.79204825433968
H           0.65690052517192   -0.90077255907159   -0.72364200660352
