    19
        -40.92071400
S           0.43936219371704   -0.76319544428342   -1.19265075011308
O          -0.39528400906591   -1.29996438552759   -0.09917348644578
O          -0.32476060743235   -0.58060342098311   -2.40512426058554
O           1.14640809269700    0.41883972351772   -0.75711062732952
O           1.51669904294422   -1.87902061664466   -1.49360084513183
H           1.08658970751235   -2.44843034253192   -2.12528285447027
O          -1.54644845845715    0.78925764956239    0.70333496308434
H          -1.24335555192021   -0.15204317720102    0.42803887325489
H          -0.65138386219554    1.14830534560390    1.22984444582089
O           0.78869129961367   -1.23605553970893    2.30692621329578
H           0.43323628775571   -1.40539716066047    1.41179048325462
H           0.33279867748304   -1.83428976341349    2.90074664701710
O           0.66967610370619    1.34468093663498    1.65536199682506
H           1.09255573564862    1.15684382474175    0.78572483780575
H           0.85047959447526    0.53518260273593    2.17825220925157
O          -1.22578546213761    1.75040555118593   -1.62635949043115
H          -1.56018393458485    1.29334089502924   -0.19484623720351
H          -0.40862031676467    2.25748312248355   -1.62432143834003
H          -1.00067452300140    0.90466018946245   -2.08155067956242
