    19
        -40.91889843
S          -0.28845177104393   -0.35831316778072   -1.42508309559896
O          -0.09832365298883   -1.27609575064023   -0.28101361298067
O          -1.69668889380649   -0.12070726691769   -1.66600558461782
O           0.50631470572271    0.82997327790444   -1.26572756605573
O           0.25391554078233   -1.14014979791931   -2.68681737423933
H          -0.50085167472575   -1.64788450109235   -2.96902554261716
O           1.55863222180750    1.32213308601996    1.07428672165450
H           2.15461140917676    0.54276881137410    1.08730834062200
H           1.28941170116943    1.38674055284220    0.12599651040731
O          -2.35155143131511    1.41001144345630    0.33100715245531
H          -3.28711988323041    1.27883746080344    0.49994211893827
H          -2.14932083006180    0.92891674799415   -0.51094202931493
O           2.40198642610992   -1.17776365736311    0.69717776537851
H           1.55652688994021   -1.31727969809096    0.22641027654595
H           2.55240565667706   -1.96084654046253    1.22860707604383
O          -0.55746296006454    0.22136363612867    1.69221254914972
H          -0.42748656549348   -0.51415121860473    0.98925162788983
H           0.39093674472907    0.80276229068223    1.55445416310426
H          -1.30748364338066    0.78968429166404    1.29796051322963
