    19
        -40.91833240
S           0.73157786036374    0.66745369199868   -1.41310673677036
O           0.32435177754486   -0.71085305476069   -1.22311310250561
O          -0.27047895884449    1.51032914502176   -2.01662835598342
O           1.25644141540777    1.24595220666297   -0.16618210375213
O           1.95963156951953    0.62620839194474   -2.41273359585836
H           2.04718624889851    1.53320783150887   -2.68988978311163
O          -1.67075850145911    0.29229119369136    1.86542669152478
H          -1.91830053830387    0.28272972731064    0.89885836072298
H          -1.98199396250018    1.13158580148639    2.20949932786513
O          -2.19918440917448    0.30159347554129   -0.69773707020825
H          -1.61156598237800    0.90354253288565   -1.20235131319747
H          -1.97795919706141   -0.57055964256862   -1.03689573931885
O           1.13156548429634   -2.23823147824640    0.70820218343524
H           0.45720499679420   -2.91250227778966    0.81344803218544
H           0.92156451706578   -1.76007737229166   -0.13440155405363
O           0.85056311175808   -0.01176164418066    1.90205948659593
H          -0.17098674765645    0.09763867484437    1.97933506798254
H           1.02168784628158   -0.96887081629499    1.57989228779883
H           1.09945347942253    0.58032360340214    1.03631789664017
