    19
        -40.92343664
S          -1.34407126901058   -0.89381738833508   -0.48989405118644
O          -0.80189056047878   -0.68622798911979   -1.83354634628447
O          -0.63065256786012   -1.92981708417325    0.22611858200368
O          -1.41893233649984    0.35125804153468    0.25804873627129
O          -2.82930974828461   -1.38233668997078   -0.68375887751806
H          -2.72253843452270   -2.17957114119884   -1.19319415479861
O           0.28605280341601    2.33097128389659   -0.28399541337550
H           0.65596664748174    2.40641401689647    0.60251576446261
H          -0.52981296106423    1.79931153717646   -0.17505045250983
O           1.78747142010175   -0.96724091466427    0.48847283506223
H           1.56209062639470   -0.35572993780156    1.22051021500538
H           0.98573536202056   -1.53661507317336    0.40412896504647
O           0.43543907105161    0.67336512376151    2.13037001621576
H           0.18976895023984    0.34979478826688    2.99813985364341
H          -0.34192895535122    0.51875529270615    1.54930493787999
O           1.40228997304639    0.42165733716533   -1.54398295236208
H           0.51232546627583   -0.05057080433361   -1.82372771824959
H           1.07906594721161    1.30652821073743   -1.13334856228801
H           1.72293058583217   -0.17612859936991   -0.71711139701924
