    19
        -40.92453673
S           0.11519367128396    0.22020257359918   -1.50340466981967
O          -1.03120989403940   -0.65489253210103   -1.28589895204691
O          -0.10177383075383    1.52201306595823   -0.88207728209542
O           1.36417672747115   -0.38751705417071   -1.09472801682946
O           0.22345393456984    0.46102888907005   -3.06070353219076
H          -0.62411221190992    0.81455993030920   -3.31464753300444
O           1.78828247391804    1.00291034256075    1.05787342713999
H           1.37212229355423    1.82168441766546    0.76316230063527
H           1.84627086145162    0.46319176289431    0.23157624525676
O          -1.86610662632001    0.82101372154095    0.88127170073111
H          -2.30655413707748    0.13871405284076    0.36118829749888
H          -1.26740743051435    1.26283535252120    0.22636017392525
O           0.07465041789782   -2.23403139275284    0.45946325847578
H          -0.45948297294464   -1.78867206367264   -0.24479379299956
H           0.96888006660499   -2.23417669586442    0.09862530456257
O          -0.03319638955354   -0.36058978308865    2.14253555520034
H           0.78169928417909    0.22001743009037    1.83507801196112
H          -0.86768597618802    0.14328260383575    1.76455302521067
H           0.02279972850473   -1.23157461133903    1.56456648831038
