    19
        -40.91904975
S           0.40691960146234    1.06398915393198   -0.25596272812488
O           0.33731731467206    1.21818053603392    1.17552567949755
O           1.12913116167077   -0.26619566397037   -0.54434550955291
O          -0.83043299947737    1.11327246536819   -0.96341059325880
O           1.37142336512201    2.13074265372714   -0.83064770577319
H           2.18112251744612    2.07120424319906   -0.26521644472270
O           3.02660838422471    1.37557094615423    1.03380918038808
H           3.27201697049038    0.47493408209257    0.80457373735237
H           2.19167138950521    1.31595146310333    1.52511112076830
O          -1.80035919532439   -2.33415708623795    0.12370916078937
H          -1.99114038509347   -1.50650109463869    0.62012439026398
H          -1.37464638145359   -2.92975668359213    0.74196657891570
O          -2.11290806445123    0.03893773730538    1.34281804950567
H          -1.25019569111898    0.44924161510960    1.51424577928970
H          -2.51451277840799    0.58443483852265    0.66068161116522
O          -0.52153890608396   -1.43212873887424   -1.99857359330602
H          -1.02172781863849   -0.62630506700214   -2.18107229436929
H           0.53950276995523   -0.83201468789810   -1.20390347637768
H          -1.03825125448011   -1.90940070242555   -1.29943296243062
