    19
        -40.91889843
S          -0.08305773157030    0.12803204258262    1.48908562655016
O          -0.23913250776030    1.53247178279321    1.80639038860924
O          -1.14068626743139   -0.32191690982547    0.55857154049757
O           1.21897098405286   -0.23992514417054    1.00046118512606
O          -0.33939205486807   -0.66310695378198    2.83295630950404
H          -0.96701082223770   -0.11320681076244    3.29222827660436
O           1.44132803697286   -1.02889318180170   -1.47878344174356
H           0.90288138007308   -1.84319550602795   -1.37878300487976
H           1.64131414085806   -0.77278025265468   -0.54553259730640
O           0.50236666258498    2.68475585614614   -0.40373694351141
H           0.31883353132137    2.32135896612401    0.49916315680380
H           0.05708876671963    3.53358426994467   -0.44960707953640
O          -0.51330150024895   -2.63813372283833   -0.64886968668186
H          -1.31432407758587   -3.02188385879194   -1.00858287293416
H          -0.79083168871493   -1.89176312209276   -0.08149027396305
O          -0.36767693081383    0.63524393894012   -1.64068191135315
H           0.02012879047685    1.51853273342997   -1.30955048373102
H           0.49274974685848   -0.08114698485779   -1.72233655302278
H          -0.84024843867441    0.26197285767747   -0.81090163503404
