    19
        -40.91833240
S          -0.14155080667392   -1.71649086835731   -0.11889877753347
O          -1.17279296354408   -1.10976466369921    0.73732476713108
O          -0.63445419890017   -1.98310622705906   -1.44726500279480
O           1.09192421264257   -0.95612785314496   -0.07520002574284
O           0.18618889413675   -3.11991521796834    0.53850474345428
H          -0.55273991465814   -3.66110199266474    0.27749801508274
O          -0.85848025681374    2.25775128513583   -0.72804106539389
H          -1.74498694070651    2.44062536576486   -1.04468171893879
H          -0.47617757549068    1.58288067978352   -1.35539559796910
O           1.74315506815527    0.70389990936986    1.80474005942590
H           1.62448932204706   -0.03271315391733    1.15203148759299
H           2.37105379525323    1.31490065488984    1.41380442149497
O           0.11605705696252    0.39460697426403   -2.28685446539713
H           1.03565975666183    0.26665769068956   -2.03690781711340
H          -0.29191234256888   -0.48339405075747   -2.12960117710820
O          -0.74495748217758    1.16247600853096    1.56074607202840
H          -0.98941339508296    0.15370411675058    1.27041769367662
H           0.25104971710564    1.09837582581566    1.79136308331685
H          -0.81211191643286    1.68673552661480    0.67641532478589
