    19
        -40.91505817
S          -0.32411487141610    0.10778919382083   -1.46064537230472
O          -0.88937901683970    1.00190837110464   -0.33279325396026
O           0.56726208060862   -0.86882759005360   -0.86844682085944
O          -1.37763843846994   -0.41492383171451   -2.24972437173021
O           0.53998559367121    1.11552571711141   -2.25899458682559
H           1.31323746344600    1.31672756339451   -1.68609271781010
O          -0.52305348839478   -1.70454791527511    1.49773428320609
H          -0.11303535745372   -0.98406788058904    2.00726607018368
H          -0.03871244728266   -1.71128167437267    0.65781474348726
O           2.44141869286546    0.88748272692092   -0.41565865058988
H           1.92050469932821    0.05715853813889   -0.41909677666089
H           3.32871899680643    0.66408354836395   -0.70591927107915
O           0.70876682873144    0.73545883688974    2.00725241188131
H           1.56906480861279    0.90990452060684    1.61374808460827
H           0.06723793950640    1.15786113111363    1.42428505281687
O          -2.64029613961657   -0.57237255615502    0.47965390867191
H          -1.98741040286047   -1.13202501370146    0.99029279627049
H          -1.70809502558123    0.47821278292070    0.05043492385462
H          -2.85446191567144   -1.04406646854732   -0.33111046317222
