    19
        -40.91373486
S           0.63514810876510   -1.49057436292234    0.39927243364883
O           1.40759115039985   -0.69203125051395   -0.51459467866860
O           1.08971363803783   -1.26358412072231    1.83284757716374
O          -0.78202701700288   -1.37991677348785    0.28712502890156
O           1.02740958260783   -2.99153570476133    0.15555840865766
H           1.98101617058678   -3.05458005060300    0.13395096011752
O           0.54551672460539    1.76288765967879    0.48999528559246
H          -0.13835627685551    2.04055740374792   -0.15975720445149
H           1.04534734431215    1.05310990600365    0.06495287307841
O          -1.26355542955513    2.18476371393361   -1.44877967974656
H          -1.09408608448065    2.81432430039067   -2.15123941862049
H          -1.17509316811441    1.29058526980681   -1.84627749999570
O          -0.70988647643770   -0.32599130895894   -2.24920109709192
H          -1.17332030950599   -0.81438658493736   -1.55660281721652
H           0.21910228712472   -0.36915849918123   -1.98506115611682
O          -0.54312843157141    0.48591281408235    2.45517309679308
H           0.43152873168380   -0.53507692212360    2.24668707858289
H          -0.16671687635229    1.15432555325767    1.80708829052466
H          -1.33620369825258    0.13036895730164    2.03886251883943
