    19
        -40.90906097
S          -1.31444503509320   -0.80846608117771   -0.66769265823385
O          -1.51104338492777    0.33532222780279    0.18840333379074
O          -1.30390433654052   -0.36651396579092   -2.13000177499325
O          -0.20862656149122   -1.64548408962006   -0.37357051854272
O          -2.63273505161954   -1.66274384873266   -0.59440984314434
H          -3.37364781658018   -1.07388432729233   -0.72813601998211
O           0.98946207463675    1.36502036949296   -0.55706057906271
H           0.07430740376008    1.24409970274959   -0.27533664453403
H           1.53993683601952    1.05110435282567    0.19226276395795
O           2.17062346190850    0.41758299842038    1.67174559764137
H           2.68722477569819    0.92760742187354    2.29777554294639
H           1.32276036908453    0.20828710804333    2.10966927970699
O          -0.37175885015664    0.29395003191636    2.65847779389075
H          -0.82033778856374    0.21999951763662    1.79827740719452
H          -0.73658955594931    1.07345905787526    3.08280871379974
O           1.15410241077472   -0.39862634066730   -2.46374400139729
H           1.34273967900014   -1.18151175691713   -1.93184334869136
H          -0.29106628182185   -0.37307176209473   -2.43231967817504
H           1.28299764185776    0.37386939365471   -1.84530535617057
