    19
        -40.92246922
S          -0.36826332412878   -0.31635230524039   -0.95436146711877
O          -0.49693282601440   -1.67246213970340   -0.47389263838241
O          -1.03879530821788    0.62860240551538    0.03938683993381
O           0.97139925030017    0.10729528301311   -1.22927932155294
O          -1.22902846180891   -0.13744051351845   -2.22398413903247
H          -2.11130543727768   -0.50608248441082   -1.96747715502815
O          -3.12922649298238   -1.26191725278548   -0.85055358220187
H          -3.34126235353705   -0.63817404732691   -0.15043663485204
H          -2.37255298947777   -1.78292311288042   -0.53589845286127
O           1.47616245765952   -1.37157007447582    1.34438251087881
H           0.77160240230370   -1.69648279174506    0.75797665570006
H           2.24977157997753   -1.25434573487538    0.78725895186268
O           2.24672006399406    2.04866387812769    0.12418976792706
H           2.15487927873277    2.87985946737169   -0.34452709244371
H           1.92377626534287    1.35283387742701   -0.47942717507166
O           0.53880161908300    1.04537376999136    1.88539828845082
H          -0.39618479105433    0.85894545149864    0.90208033477056
H           0.92256196289578    0.13689016691572    1.94599644892512
H           1.22787709420755    1.57928617709480    1.42316787010266
