    19
        -40.91855625
S           1.06969725135510   -0.34773542161001    0.29964719579758
O           0.31459607201419   -1.57432201959154    0.81539114959311
O           0.50009953724041    0.05607218239465   -0.97112610135292
O           1.13713770555276    0.68474300695638    1.27986132219611
O           2.48381253064321   -0.90880624939555    0.04728287099523
H           2.41472562784102   -1.43737599167401   -0.78831191885798
O          -1.93823555284190    1.12710586465893   -0.34535926737412
H          -1.11371317350840    0.85615626605413   -0.78021235578157
H          -1.67897415109673    1.84052500890343    0.27065071855346
O           1.80650404831388   -1.82493313049400   -2.28773240507634
H           2.30863159178244   -1.50673303177431   -3.04206980323168
H           1.11508340364031   -1.16151714041443   -2.10482886835684
O          -0.64838776124226    2.73243378693109    1.40774750650218
H          -0.15896716655088    3.53682817270247    1.22756122765519
H           0.01435796059870    2.02882703820363    1.52182518379252
O          -2.10751428568814   -0.98533578097055    1.13599830176874
H          -2.67009774689269   -1.62372049667270    0.69118148853512
H          -0.67940179491320   -1.36151218956686    1.01404067442498
H          -2.16935409624790   -0.13069988463579    0.60845309022367
