    19
        -40.92136409
S           0.09906411342986   -1.13733096375273    0.78676839297570
O           1.24931107136430   -0.23751533610136    0.58947862873908
O          -0.35502018265579   -1.15301462478806    2.15513441126703
O          -0.93892325728368   -0.86478014778268   -0.18174639019468
O           0.65273673495183   -2.58962548117720    0.46204104162713
H           0.95827880829039   -2.91700866898334    1.30330132344181
O          -0.58732015205585    1.08433629138776   -1.89681396556457
H           0.24114121395046    0.71572002284048   -2.27557693896764
H          -0.96574991322810    0.31070959710456   -1.41959240180821
O          -1.64315332221151    1.11173143864154    1.75911090008222
H          -2.38067388972675    0.80234923230148    1.22581382581111
H          -1.20416868351274    0.29593905468826    2.09114431301822
O           1.57187511253932   -0.46836592034898   -2.06573319165151
H           1.39535753138784   -1.38523999151092   -2.28335246611848
H           1.62724660032760   -0.42810522745324   -1.09234682260649
O           0.20768802261311    2.02009013327324    0.25516168526287
H           0.80718727587646    1.20867924095019    0.44780597218870
H          -0.15514196818898    1.77731648749035   -0.74890633485496
H          -0.57973512585966    1.85411486322684    0.88830802734964
