    19
        -40.91966050
S           0.12694953770761    1.23267799194771   -1.18130951979170
O          -0.96135916842374    0.44217314449139   -1.73556627455858
O          -0.34251022343698    2.04145823057113   -0.04585582734577
O           1.28333942752914    0.44477331288637   -0.83308536674097
O           0.56609876477274    2.25804692553868   -2.29204286309794
H          -0.24242126786811    2.72206603150131   -2.48645598093630
O           1.73599558819890   -0.47922836770511    1.68455905791482
H           2.03139921023781    0.08288637999335    0.94929316308109
H           1.55739783027034   -1.34259369251286    1.23818659259210
O           0.89571591567981   -2.19614294761190   -0.13749813306022
H           1.10355961796675   -1.42910980507104   -0.69593422480429
H          -0.06672427031444   -2.24073097555823   -0.10330921356247
O          -1.73828026691207   -1.14059770885598    0.12204748729004
H          -1.48327426152106   -0.57523261189217   -0.66397000197053
H          -2.68950135489916   -1.25384013042779    0.07568237020628
O          -0.58275378092602    0.43231996744352    1.80915420523064
H           0.41678706146560    0.04406805899851    1.88936888803981
H          -0.49729243369598    1.22169360578341    1.10145388240073
H          -1.11312592569439   -0.26468738989666    1.30528174922495
