    19
        -40.91226080
S          -0.03309662456381   -0.14827922876875    1.80049257637535
O          -0.91780444220356    1.08561150729136    1.94548394440204
O          -0.80530115172984   -1.30662235003159    1.47942496637466
O           1.09605813133443    0.12285042066471    0.96129250810745
O           0.50372231251709   -0.31007503208407    3.26776532466986
H          -0.21055852358904   -0.68678444201590    3.77717191800118
O           0.88465680771888   -2.19752439436221   -0.48254034384624
H           0.07554202992674   -2.29915298488822    0.03570686158685
H           1.33883469395152   -1.46023072360779   -0.05239402175633
O           0.54572726397318    1.39658711684929   -1.43000142146267
H           0.98746620871400    1.04386686994377   -0.64270825685920
H           0.44224738527194    0.62995019924614   -2.03909968320951
O           0.34432526012760   -0.90812770762705   -2.77978736122364
H           0.48397860824867   -1.49365442171991   -2.00241266276400
H           1.00468642547211   -1.15844515733445   -3.42764675425643
O          -1.70545999537303    1.83232332872512   -0.29191178262388
H          -1.30308984655716    1.39241212060076    1.01368056218352
H          -1.86513302270578    2.77938867896474   -0.28650599205378
H          -0.86680152053799    1.68590619015062   -0.84601037164321
