    19
        -40.91790599
S          -0.29172580622339   -0.15990186815985   -0.97147545048401
O          -1.66943233822825   -0.46476861639538   -0.71221552088110
O           0.20475330872653    1.00861817659108   -0.29077761710133
O           0.58063751853579   -1.36470457986710   -0.67141938217110
O          -0.07975298236646    0.02706185143169   -2.50631977801398
H          -0.65552745749978    0.78421531134020   -2.74234258168563
O          -1.08029703965824   -1.38107711831814    1.79116996598965
H          -0.78487441138332   -2.27826839591486    1.62210704954380
H          -1.49312126719768   -1.07354437607162    0.96931436892272
O          -1.77091188557000    1.98249389404701   -2.04559204606245
H          -2.39118646848311    1.37529210850001   -1.62586715382593
H          -1.21243704986360    2.32377850723561   -1.33831062259577
O           0.87739259277245    0.44928701745919    2.30138040402052
H           0.57537446069154    0.99229268735863    1.55761729565662
H           0.17382216015687   -0.21629507985086    2.41451640873917
O           2.55455194320509   -0.67231826421254    0.68627760641363
H           2.97030702967054    0.07331885565214    0.24577421358370
H           2.03006111177381   -0.28356213056728    1.45429786989021
H           1.46236658100905   -1.12191798023870   -0.13813501987643
