    19
        -40.91907694
S           0.70268988381219    1.04412315586493    1.09484483078859
O          -0.29395302528004    1.82257960309573    1.79216016323188
O           0.51134163080709   -0.40562041668114    1.31183862241974
O           0.81268976351235    1.34149158548250   -0.31485942078534
O           2.10352073069171    1.38087689942653    1.75069283807237
H           1.91960810344661    1.51801016607891    2.67636127073505
O          -0.51946706132135   -1.86075980719017   -1.94738401399885
H           0.40957623620143   -1.55010631254501   -1.73931414384103
H          -0.47270785807397   -2.81004940484172   -2.07437822176640
O          -1.60809801591174   -0.97489879153610    0.15394674018904
H          -0.74039593182920   -0.82288348920252    0.73506221543136
H          -1.26055396096842   -1.37848594471403   -0.73928749246376
O           1.77136684419481   -1.00615987750246   -1.04418943872037
H           1.59677513940106   -0.04444704262403   -1.02270477137908
H           1.70851771251231   -1.25588145771656   -0.11328763400155
O          -1.93584240745403    1.50018128451604   -0.22704831136519
H          -1.24501359625746    1.70749656844741   -0.86982447054106
H          -1.91025765857783   -0.00049715528241   -0.05055845492119
H          -1.54979655890702    1.79503041692683    0.62792970291874
