    19
        -40.92217266
S           0.49627943518407   -1.15796629352297   -0.56350269832919
O          -0.00638027473398   -0.99096740716041    0.78870058428386
O          -0.19720515707379   -2.11810555644331   -1.37326425182835
O           0.66340087896987    0.14255092624404   -1.22491475658381
O           1.98521271633676   -1.70997994763043   -0.36752138867997
H           2.11882563012918   -2.30791195876778   -1.09702687531555
O          -2.12913615311160   -0.24752410282771   -1.48624971749717
H          -1.58189605379950   -1.05249090959997   -1.47011174090743
H          -1.78247767210823    0.28258624399819   -2.20789464075459
O          -1.93544484071140    0.86679198410179    0.93570602394011
H          -2.27023344968154    0.58148333997876    0.05708432509247
H          -1.47049841491101    0.07534809996098    1.25992215920766
O           1.70673863209636    0.64275239012006    1.89783520864664
H           1.11908863631939   -0.10780819449480    1.65053699915703
H           2.58296097870412    0.40706313129079    1.58683859918844
O           0.20455473957849    2.00624246262397    0.33469087878446
H           0.83775944941870    1.70179738939916    1.06691276850810
H           0.42399188145209    1.30904462291493   -0.42817749001604
H          -0.76554097205813    1.67709377981466    0.64043600310875
