    19
        -40.91314412
S           1.71251499075371   -0.51235080469718    0.03377978620930
O           1.49618992591105   -0.25458160204985   -1.46974816094695
O           1.99684680222824    0.71703291283568    0.70718972674780
O           0.66338562977202   -1.31940866131576    0.55908938243460
O           3.02698074207628   -1.36387916698210   -0.00166392898347
H           3.74072748408526   -0.74260763878846   -0.12752299064412
O          -0.42260981618014    2.00703277562143    0.82067648796206
H           0.49912369727368    1.71849439655532    0.90286700266967
H          -0.65774739118571    1.89994488883986   -0.10780467292775
O          -1.94499240156825   -1.21910428260307   -0.38535456745313
H          -1.15341345644142   -1.74382312348419   -0.20894652584613
H          -2.12909066533310   -0.79622123960523    0.49137345438497
O          -1.71459297461528   -0.06891918083483    1.97771269130287
H          -1.36911304020143    0.80404096240254    1.69696823446344
H          -0.93653092241468   -0.59526951463180    2.18274789694226
O          -0.83769915040446    0.67637854536268   -1.68438187837244
H           0.56582110247423    0.15223350007897   -1.60773273493588
H          -1.17283772742708    0.69469958076787   -2.58362280294997
H          -1.36296280877728   -0.05369233745854   -1.19562640004845
