    19
        -40.92453630
S          -0.23151556563441   -0.71517269749268   -1.32579883924846
O          -0.01574081057867   -1.73554505745308   -0.30600987842137
O          -1.43584665117837    0.05627589791531   -1.03971601301600
O           0.93198257200387    0.12313096819897   -1.52494727612027
O          -0.47966035515558   -1.46817537353870   -2.69202442032009
H          -1.27758934587403   -1.97052813988106   -2.55493982389537
O           0.44458108885383    1.07624999338593    1.83485104934301
H           1.25316415537852    0.51338952990755    1.48122798201901
H          -0.33974845606032    0.38815030317335    1.90300470889472
O           2.16356941114256   -0.38087102339053    0.70572458081176
H           1.86082720858775   -1.29007976284506    0.81570186856414
H           1.89757903505932   -0.15934592585425   -0.22033979141915
O          -1.37325769783728   -0.65438504149437    1.61808755652787
H          -0.88589027560400   -1.23103284138487    0.97588589226110
H          -2.06008014798688   -0.24496853593863    1.07894940627118
O          -0.26140803748277    2.24892350308873   -0.28171344114578
H          -0.85686918865676    1.53339085868498   -0.61823969557938
H           0.17419170693766    1.69320148881540    1.03339260939637
H           0.49171138409707    2.21739187609805   -0.88309648489064
