    19
        -40.90976739
S           1.19878377327683    0.64547851748523    1.40673940368331
O          -0.01255164266861    0.24944623593391    2.10201721685980
O           1.86278471279764   -0.47499974611397    0.76664529814602
O           0.96368328442742    1.74801235137589    0.47270827693978
O           2.18682766923339    1.22216285829313    2.49251539999799
H           2.25713760742742    0.51082941736279    3.12191417403251
O           0.99702041646210   -0.99911179905091   -1.60174388554712
H           1.36837451869864   -0.89405426212590   -0.68242442337822
H           1.74565411255968   -0.97355895931241   -2.20043559095881
O          -2.04292871054928    0.08349774568731    0.52582879609325
H          -2.75373724643336    0.60322771742397    0.90559774684270
H          -1.30549155214793    0.08191443463340    1.19677164504335
O          -1.78608049853275   -1.70462518399356   -1.70801326987344
H          -0.84786184608286   -1.91384442922043   -1.67132589332648
H          -2.05671791509262   -1.48223842175233   -0.81209873981048
O          -0.54888974353975    1.01307931046599   -1.32479021137066
H          -0.02829946288455    0.19037006131546   -1.64022360526370
H          -1.30726178198924    0.64420710854978   -0.74577541809452
H           0.10955430508094    1.45020704311430   -0.60390691001920
