    19
        -40.92007377
S           0.24281889247114    1.14702535000941   -0.75679317440160
O          -0.45193555980236    2.28955850071683   -0.20718735672168
O           1.20080813965016    0.58219803724964    0.21471489134710
O          -0.60667235684419    0.12052496470953   -1.30115665326048
O           1.13757618379806    1.68515432504269   -1.95014748553359
H           1.39664422938632    2.55562119594453   -1.66277621593145
O           1.76593048117566   -1.70918760574825   -1.08141147462274
H           1.73802832764962   -0.85555155691347   -0.60992091171643
H           1.67304657296449   -1.49705019124931   -2.01223508955361
O          -0.66196293963098   -2.22962875232939   -0.13250554865829
H           0.25940257756617   -2.39889349755213   -0.43907741944136
H          -0.93405651299543   -1.47133491519645   -0.69675222200923
O          -1.94896496670855    1.08841120171012    1.55743983764130
H          -2.13868579280964    1.71687760349107    2.25761330660283
H          -1.48698054460526    1.59551504482434    0.84466157982848
O          -0.21056649501250   -0.75956367598432    1.80066913804683
H          -0.46947543402632   -1.52769925789018    1.04774549424980
H           0.49495803396234   -0.21616138799836    1.28797922792471
H          -0.99991285619030   -0.11581538283508    1.83914006620657
