    19
        -40.92079094
S           0.30815581486289    1.45253733498953    0.06133513443240
O          -0.86681215725793    1.12272165779376   -0.74779502011264
O          -0.04195744712785    1.94943350321542    1.36696454337437
O           1.25992789441725    0.35029018825175    0.07638174018723
O           1.04781221934345    2.62372286000155   -0.70421733993288
H           0.45789574298972    3.36324255786153   -0.59684482448764
O          -1.52156799978035   -0.01071824973170    2.34285581093684
H          -1.53432802976608    0.07765225074794    3.29780600833349
H          -1.05283888411583    0.78163300804021    2.00152337931619
O          -0.96961812429898   -1.27258902372999   -1.36355041300243
H          -0.09000347249316   -1.31318044998226   -1.86855843195109
H          -1.06335281307143   -0.24010212071044   -1.17355289300925
O           1.44924645283089   -1.01030500513270   -2.15820707204104
H           2.11041613484522   -1.69468330875282   -2.03652689787838
H           1.54014367862517   -0.39278493058281   -1.39450041136362
O          -0.13393579158660   -1.75357495110344    0.93463680619858
H          -0.75729884754658   -1.29779354111775    1.54801582881214
H          -0.72602366319715   -1.63401425700729   -0.38997046029030
H           0.58413927233864   -1.10148752305085    0.80420452247910
