    19
        -40.91904989
S          -0.15745487534201   -1.15120733979442    0.11978486578144
O           0.88511252154037   -0.29643114211034    0.86585523430950
O          -1.46164882391111   -0.73555853644166    0.57141896813968
O           0.07834117097903   -1.09594601353921   -1.28561395952359
O           0.11884947336941   -2.58679863889241    0.63201104108243
H          -0.11074299489478   -2.56104334043076    1.59407277578656
O          -0.66840261485028   -1.71341618981580    2.95689158326558
H          -1.29015878977227   -1.23496822948094    2.38543325096205
H          -0.00152651582573   -1.07607378181996    3.22682942214281
O           0.46904204233544    2.62637925075328   -1.26547462939966
H          -0.38240749452946    2.14429105104280   -1.36653626345153
H           0.34013024502464    3.25982870351220   -0.55807175701458
O          -1.73749369955857    1.10080606292711   -1.42193492458866
H          -1.53300064059690    0.48841843434932   -2.13415558998462
H          -1.82976286892920    0.54399319121313   -0.63237518077551
O           2.20167684149961    0.65367381083095   -1.02155246686245
H           1.54289986552602    0.12069429751211    0.16121548575727
H           1.84893617802482    0.02373430830029   -1.66322720900171
H           1.68761097990901    1.48962411188525   -1.16457064662205
