    19
        -40.91103774
S           0.17465365954117    1.40060652864790   -0.59564824120223
O           1.58896618646693    1.66927094927078   -0.43004911014322
O          -0.02227303914789    0.18785335812111   -1.41814827387063
O          -0.55203099646746    1.31788243010303    0.64562605602792
O          -0.44317479242805    2.57859449031290   -1.42888820706734
H           0.06448182552862    2.58812356493886   -2.23500378713119
O          -2.68062386555776   -0.68294476376840   -1.11968864551575
H          -2.64272660247059   -0.85927662380705   -0.17650666939453
H          -1.82320227702060   -0.31389786751011   -1.36592710683908
O          -1.29811019681821   -0.95941908930761    1.59830534995278
H          -1.18597434363593   -0.95673487062213    2.55097930300010
H          -1.13856720229927   -0.02619426342173    1.29374915151522
O           2.43626833505552   -0.33000083472534    0.96065554034795
H           2.16978999466198    0.51742969784340    0.50872206169540
H           3.34685797635604   -0.49425476655207    0.70478880833174
O           0.54695193173198   -1.72376975379272    0.03496775766471
H          -0.21778076538288   -1.61014560954678    0.71417966663923
H           0.29290325301091   -1.00681634946874   -0.70904719128675
H           1.38359090896308   -1.29630625661142    0.46693354723200
