    19
        -40.92217264
S          -0.98292178850188   -0.90677593424717    0.34173940967852
O           0.45145756343716   -1.07746990036562    0.49305212146282
O          -1.74947850238141   -0.96762741646450    1.55301341771733
O          -1.28673267621820    0.27481586361259   -0.47550028898583
O          -1.43794801823349   -2.15093021306470   -0.55494981710683
H          -2.30293214963328   -2.37970053295447   -0.22780738875068
O          -0.72430220592291    1.47602260460982    2.02503355488204
H          -1.10337410682093    0.57983799801284    2.05455564645990
H          -1.34666116512542    1.99975640310352    1.51483156934456
O           1.70877494165173    1.24681993372100    0.94346112531577
H           1.63582280511135    0.27713573739781    0.99317629343324
H           0.94464442265732    1.55325130806931    1.47995353850949
O           1.33945924099671   -1.12675908003392   -1.96513165245042
H           0.70974764893690   -1.61775998675445   -2.49653806053610
H           1.10422710506608   -1.30933126036265   -1.02640593521076
O           0.77762509785584    1.30062111568580   -1.37291232032772
H           1.28105775401775    1.40647076069946   -0.43483157643348
H           1.15400892759607    0.45491264519105   -1.78876224384364
H          -0.17247490448806    0.96670995414052   -1.05597740315993
