    19
        -40.92079076
S          -1.00717242970478   -1.00220335485273   -0.43140579744133
O          -1.97545278087304   -1.18698444088314    0.61856816417148
O          -0.87784300866384    0.37341136933179   -0.89192827073994
O           0.30037555400803   -1.56981552493982   -0.09679818485895
O          -1.52338255900201   -1.81013734349954   -1.69081274303020
H          -1.73823067365053   -2.66534718698059   -1.33163216060177
O           1.25992887327309    0.88269800711296   -2.32403507064184
H           1.23052314970606    1.80403436554912   -2.58956436264091
H           0.36558325773586    0.66331317722586   -1.97078748638461
O          -0.77561406273412   -0.04232461125139    2.67706932812644
H          -1.44551918701410    0.16346050925383    3.33184044805787
H          -1.23014831404172   -0.55213131986159    1.97195185412747
O           0.43657706443759    1.64116223867037    1.05004092606258
H          -0.20306268884286    1.43484368498713    0.33863317239975
H           0.08943906982907    1.14587563127580    1.82854503484985
O           2.09952049307723    0.12824086794408   -0.02656459723013
H           1.44227472963507   -0.69614049873948   -0.01169565750241
H           2.01301700596219    0.44704790950577   -0.98622085478977
H           1.53918651687427    0.84099649015636    0.53479627806054
