    19
        -40.91170668
S           0.49463705146884    1.34399572923700    0.10802890258334
O          -0.35531519771580    1.17904471116682    1.28170995515394
O           1.76808796071923    0.65924226530646    0.27302755451520
O          -0.20818760462176    0.98650126823571   -1.10747337115180
O           0.83068430287528    2.88576279880516   -0.01151273569548
H           1.48383762348559    3.04696666995074    0.66385884387726
O           0.51540268474375   -1.50947830376575    1.16448471872022
H           1.15120772615288   -0.81054841353322    0.89999347004475
H           0.00931802926723   -1.12266109678431    1.88612010541192
O          -2.59237386328773    0.08033202856623    0.59346735520563
H          -1.80132722436595    0.56456953191004    0.95841872359693
H          -3.06935012395805    0.72143911674974    0.06177574514746
O           1.58651885376612   -1.26051660372113   -1.65329139911875
H           2.33949201201925   -1.84861199155084   -1.57995951594537
H           1.79388564972402   -0.47832349866799   -1.12132576363194
O          -1.07971325176456   -1.35395265435820   -0.81481393609708
H          -0.62659938831025   -0.53528425299930   -1.22910583852888
H          -0.39219600749537   -1.64311151720361   -0.10213400648677
H          -1.84800922279193   -0.90536579743097   -0.27126880762400
