    19
        -40.92343562
S           0.92914448429376    1.37585859725590   -0.29851168454240
O           2.02843506748836    0.56028112095279    0.21968593433420
O           0.59425633128112    1.02659470896568   -1.66278130322964
O          -0.22519994075567    1.34564184356392    0.58563158769043
O           1.44447292823828    2.86459685508996   -0.30126387122087
H           2.18587219738161    2.82847492048866   -0.89751913676077
O          -0.26026983503283   -1.44018666457475   -1.49039336814563
H          -1.14322994911395   -1.20502785074178   -1.13595944998494
H           0.11628199887803   -0.57328012226199   -1.77431931823331
O          -2.25732216613717   -0.14985973165897   -0.23976709940760
H          -2.90466639057342    0.31268563639013   -0.77358658591896
H          -1.58509017990320    0.51904058165236    0.01801165930509
O          -0.65803002024451   -0.78494517284837    2.13413373231008
H          -1.53826756419196   -0.98858303876249    1.79905211379266
H          -0.47149882549024    0.12499890348230    1.82246102864740
O           1.11584484976660   -1.72289046649391    0.56790014423029
H           1.64338325381771   -0.82600211746244    0.46149146620123
H           0.43351589593398   -1.50741172324289    1.30547207962242
H           0.55236785432528   -1.75998625987139   -0.33973790879074
