    19
        -40.91966027
S           1.39790459636208    0.95635303624674   -0.25198795427153
O           1.11814987908964    0.53590119935219   -1.61632832550190
O           0.46385965757260    2.01138524007288    0.16992134379042
O           1.42623892261627   -0.13765713228059    0.68700565779305
O           2.82646693704102    1.61774667741677   -0.25608524302694
H           2.74300533209589    2.30298485441340   -0.91208776217674
O          -0.09852248484648   -2.37107608927758    0.14307240529321
H           0.68642453827077   -1.80070890364738    0.18630697520969
H          -0.59551404888058   -2.07214976811489   -0.62708420280223
O          -0.71763593172660   -0.84168861158849    2.20536855671131
H           0.19638707585316   -0.51382775701465    2.17562521511861
H          -0.68125395425804   -1.63731390165537    1.62048452722424
O          -1.25057349755319   -0.43835991481121   -1.60400842130628
H          -1.69571393129414   -0.21776430619357   -2.42439277393231
H          -0.31306794514047   -0.09797830546955   -1.69240268208756
O          -1.65652169019628    0.82776835724446    0.60687513292488
H          -0.79992960568536    1.44473050047474    0.47632445403457
H          -1.68819760883594    0.30254383705696   -0.25579309339571
H          -1.36150625049280    0.12911098778447    1.36918620040387
