    19
        -40.92343664
S           0.52711666902125   -1.56731060718980    0.33227641023629
O          -0.35199920865997   -1.93452262814576   -0.77895427474586
O           1.77557566244123   -1.00084281944330   -0.13163252101955
O          -0.15027961082139   -0.71233556168309    1.29418492172968
O           0.86228872704714   -2.90671053603481    1.09102247315463
H           1.28105647305355   -3.43052988506047    0.41519109874353
O          -2.14445781257052    0.86849447131024    0.49216996195296
H          -1.75454818815797    1.69920076613413    0.78597767253306
H          -1.62327023138414    0.17007616099602    0.94037141361658
O           1.05799712601507    1.20649950880916   -1.33876515039160
H           1.51140779859999    0.38594724469924   -1.03038867410706
H           0.91640748629852    1.71719103836194   -0.51419884185626
O           0.52250369009938    1.85458003733975    1.21236374468645
H           1.25354063009100    2.09601295823202    1.78278032543746
H           0.36271349908916    0.89644316174396    1.36117233791082
O          -1.17784086289614    0.19123053841853   -1.76284934227255
H          -0.24267878746652    0.70745621114696   -1.71972618521011
H          -0.90747197905650   -0.77613420558913   -1.47184706396260
H          -1.71806106074343    0.53525414595460   -0.95914828643594
