    19
        -40.92343668
S           0.55129619246318   -1.43925540255381   -0.68563668677967
O           1.35450337614101   -1.53458913834941    0.53423656583332
O          -0.82829257192723   -1.81050517598185   -0.45386320184181
O           0.68004327915570   -0.13383100536568   -1.31374239936708
O           1.16242091607068   -2.47926152161772   -1.69908349910556
H           1.07082261624377   -3.30420637780886   -1.23266828597975
O          -1.70162763651423    0.00580842576574    1.21373432965461
H          -1.80806348721166    0.70582821336815    0.53603217692726
H          -1.54004497739108   -0.81046782053702    0.68300977203913
O          -1.39532475673202    1.49219404542864   -1.00280060440862
H          -2.06074811814049    1.42961529808775   -1.68933967614290
H          -0.68110344681815    0.86564426845276   -1.25401740308087
O           1.23789633589869    2.00771890734073    0.17776451125170
H           0.46169460738825    2.52188931657121   -0.07047043207549
H           1.28829496462696    1.28718606825060   -0.48436768636835
O           0.63883463120597    0.33694521220674    2.00208022161276
H           0.94678446758640    1.12207139163826    1.41474113097321
H          -0.40907604466790    0.23488759072861    1.81469050130470
H           1.03168966263428   -0.49767228562946    1.50970065553438
