    19
        -40.91855623
S           0.94116956906437   -0.52684435088463   -0.43845199342494
O          -0.36062634019655   -0.23126574004635   -1.00471080336591
O           1.62128708671145    0.78614165489214   -0.04561464159620
O           0.92742298523108   -1.46029305654358    0.63860108082843
O           1.85672651642873   -1.05329450392337   -1.56209802819667
H           1.64337690001839   -0.50330465876539   -2.35872951543468
O          -1.17150499530723   -1.72134515492736    2.34844134202883
H          -1.52445513442036   -2.60326786120311    2.21929270641217
H          -0.33077024672539   -1.68888006521842    1.85919544033948
O          -1.89113880688121    0.57507648359244    1.11456175939574
H          -1.83001595132081   -0.20613405030989    1.69900543720003
H          -1.56362345424823    0.27217306412052    0.25238054300585
O           0.67096143042609    0.41212198602678   -3.34950918656571
H           0.27771349384158   -0.04793665012595   -4.09522371689432
H           0.02039527968916    0.38600061586693   -2.62303557525560
O           0.21500592390103    1.96841575569260    1.66942716238914
H           0.05640488750068    2.87802207768016    1.40652399171209
H          -0.66059438633681    1.48279757900049    1.56902206174210
H           1.10226523267530    1.28181685505094    0.70092191566064
