    19
        -40.92079119
S           0.28996006327916    0.25693244901562   -1.43439327487727
O          -0.96837376358548    0.48081151626010   -0.73620228577298
O           1.12220936931158    1.42713772849968   -1.54419162001318
O           1.00556945319986   -0.89115270771768   -0.87421953775750
O          -0.12400237490447   -0.16342907755515   -2.90288786953409
H           0.70528037119493   -0.17405676057016   -3.37061685366469
O           1.94812713945840    1.76112113787379    0.94438631769056
H           2.24268107286628    2.66910339231449    1.03787682566985
H           1.74221344202392    1.63733321144977   -0.00747570397086
O          -0.30406116737335    0.71967384043827    1.83469517505674
H          -0.73085886485330    0.86143544508797    0.96551486660080
H           0.57938170985650    1.14596218999003    1.73528440311845
O          -2.22248363626024   -1.68332486319168    0.05304539646299
H          -1.87469819144316   -0.88497556534871   -0.41017583108866
H          -3.03887478850519   -1.41731593085725    0.48092241768603
O           0.03440589902682   -1.68230204554027    1.26040885802172
H          -0.07010416256130   -0.71068093412038    1.68666512606775
H          -0.89281559451658   -1.89786347744291    0.90815525791282
H           0.55644401378277   -1.45440953858651    0.37320834238918
