    19
        -40.91855626
S          -0.15759051573194    0.08973245009879   -1.14976379222530
O           1.02509768649546    0.20306794445578   -0.31853898737748
O          -0.74906486889630   -1.31144413425621   -0.98345962787010
O          -1.13468685417802    1.10636126692975   -0.94179255522725
O           0.27980205893118    0.09345796953634   -2.62850276406005
H           1.10912995623749   -0.44844677398085   -2.66221148466195
O          -1.51174443253914    2.33450363373817    1.45560464145374
H          -1.28092137173679    3.25674987614705    1.33221652769639
H          -1.53246997328592    1.93653067605199    0.56759038542085
O           0.08179689306701    0.29821009082045    2.24778331460813
H           0.62120751031143    0.34158098658404    1.44188987227786
H          -0.50455049901134    1.07920705142221    2.20412473178284
O           2.52674192342995   -1.08424702358560   -2.06914939175797
H           2.24738253644639   -0.72692476994947   -1.20540338771691
H           3.33191321114813   -0.62295475630783   -2.31680649726297
O          -1.38545198246932   -1.66403289098631    1.42223368859687
H          -1.07621903537155   -1.48062107836723   -0.01552471005285
H          -1.01108357833868   -2.48403807063367    1.75266983391650
H          -0.87928867458299   -0.91669245765686    1.86704019248381
