    19
        -40.91855615
S          -1.09349419621168   -0.12976756753862    0.37767296167228
O           0.03099452208960   -1.04340181922462    0.32059336851864
O          -0.72330618811525    1.05882405757296    1.26700947689604
O          -1.58756250404906    0.29069737397456   -0.89138283535712
O          -2.23080883381846   -0.80052568033359    1.17433247084015
H          -1.78733522636894   -1.27801529120413    1.92117664598689
O           1.90601749138279    0.23331429977891   -1.20859461196146
H           1.40823994037991    0.37471014450217   -2.03797538143628
H           1.38309038615272   -0.41215680040871   -0.70641239112256
O          -0.01013909067506    0.52452275510364   -3.09455633250732
H          -0.67084297791918    0.55027770313008   -2.38025673595510
H          -0.32452602227739   -0.12184800858613   -3.72886579439690
O          -0.55056245661162   -2.09930044021572    2.67072682860437
H          -0.61922755409158   -3.05723577864452    2.66902162477513
H          -0.00800707010556   -1.85080496148772    1.89897739999119
O           1.26485705068742    2.24307807789909    0.28631488525985
H           1.60409356788596    1.54886363829928   -0.35834690931209
H           0.05947438455439    1.60927897593268    0.87096932805693
H           1.94904479711538    2.35948932145953    0.94959600143987
