    19
        -40.91855618
S          -0.68882885728345    0.86302088412105    0.37006749617359
O          -0.18212480833790    1.55083957020397   -0.89924455003245
O          -0.95098563887160   -0.53254071229216    0.07662163827880
O           0.17877270718000    1.08869238006201    1.47813206013882
O          -2.03474054763356    1.57334676603505    0.61934738066074
H          -2.66356953595545    1.19282352095952   -0.04572981964751
O           2.15289702063613   -0.64082917314331    2.19151912709599
H           1.53625758646196    0.09036585637441    2.01112355248799
H           1.93107094654384   -0.97131712020288    3.06371786756224
O           1.51770047035638   -1.67162439721113   -0.22694817402417
H           0.57013382468588   -1.49886394183796   -0.10621526401813
H           1.92535823533622   -1.47124076808467    0.63856842445061
O          -3.27704054691366    0.01579898241723   -1.04812376920512
H          -2.46560107788674   -0.48603472110037   -0.84450282136996
H          -4.01524650987427   -0.49114626277758   -0.70101223337356
O           1.94436824820102    0.44279267089573   -1.65286646625454
H           0.72363510387833    1.16070560873738   -1.21532080595178
H           1.91063367964018   -0.41558377679853   -1.12891982274552
H           1.88730969981752    0.20079463363417   -2.58021383024190
