    19
        -40.92079115
S           1.00097080098940    0.60931064929686    0.91367765659007
O           1.11690288813676   -0.84441020425065    0.78106906492380
O           1.98215983466248    1.31555624869548    0.13103700525287
O          -0.36989392484067    1.04800272229684    0.69172330983714
O           1.29458664472758    0.93132071050496    2.43528516511539
H           2.22692596013236    0.75820804142492    2.52047184923982
O           1.52215885968930    0.40217621565811   -2.30597024643069
H           1.89347041088491    1.02869927818839   -2.93002869893934
H           1.79286932438869    0.71163837904371   -1.41441424365883
O          -2.23271131647797   -0.57804171371003    1.56788267338178
H          -1.55880986421427    0.12722564445505    1.42237213112892
H          -3.08681281886845   -0.18230688662719    1.38288542462968
O          -1.02498216849045    0.08512836393308   -1.70649156099957
H          -0.14502303440988    0.13634392558313   -2.14848673021341
H          -0.93317307723721    0.67867025381761   -0.93382811397189
O          -0.90775797779647   -1.88759668647334   -0.18748092535217
H           0.01539022166162   -1.58646789138484    0.22322481934791
H          -1.56322541223702   -1.58312503601926    0.52516770169836
H          -1.02304536056545   -1.17033201466909   -0.96809628159686
