    19
        -40.91814128
S           0.32565658611271   -1.05053385404462   -1.37987647808524
O           1.72909111033076   -1.21188177962106   -1.62712767679490
O          -0.11830505635401   -1.70213522057252   -0.14010755207616
O          -0.16082594764685    0.32379961256847   -1.43437617194129
O          -0.43876534873758   -1.80626646198597   -2.55185865143913
H           0.16994080857757   -2.49665931579411   -2.79671267452040
O           0.93333017026533    0.92886122814739    2.34748963171495
H           1.45665922252214    0.90863375527957    1.50174610011944
H           0.79944163101294    1.85535010716411    2.55750930301302
O          -2.17176006306099    1.17999013439767   -0.04185735101215
H          -1.43401396960028    0.95701413396910   -0.66718463482909
H          -2.98387715627488    0.92310652871842   -0.48241108567797
O           2.02249610748739    0.95553247421621   -0.03577775025867
H           1.24631199383914    1.07478282564818   -0.60742209974201
H           2.43233747146033    0.15850681790871   -0.39976625721748
O          -1.12886168260108   -0.38245292421121    1.67158344593348
H          -1.66014708524355    0.28583425097919    1.10757695724603
H          -0.70397167101125   -1.03145861180245    0.92897395070601
H          -0.31473712109076    0.12997628900017    2.04959897486033
