    19
        -40.90561264
S           0.06496902475510    0.89667815400133    1.53924665437549
O           1.48828380389786    0.77497161208535    1.60819470476239
O          -0.51777238600389    1.44987195500842    0.36334859153552
O          -0.56839678086009   -0.46140825046148    1.85280606827507
O          -0.38668080998158    1.78938400853935    2.75946828216915
H           0.25421792802988    1.66740180033986    3.45718568581229
O          -0.81195803246345   -0.33290653769449   -1.69145188460228
H          -0.68480314019414    0.56625418653585   -1.35527372664276
H          -0.03002961700418   -0.81777095351664   -1.37988446882874
O           1.49080821355577   -1.05329251257065   -0.35255189144531
H           1.65323697057013   -0.36613081811187    0.31671448235971
H           1.81593268773736   -1.87835266316440    0.01378252047527
O           1.98564564937869    0.00687574848236   -3.01656077642147
H           1.05148636106581    0.00672816991699   -3.23974871732042
H           2.04616132085166   -0.33135327143882   -2.11571008927391
O          -2.49718862370685   -0.71339929288652    0.27253007008782
H          -2.97345555730314    0.12094458727878    0.29295292978355
H          -1.97335941956235   -0.70414032627496   -0.57819388315178
H          -1.40709758276173   -0.62035557607379    1.25314546802398
