    19
        -40.90561258
S          -0.36910277841657    0.22683308666360   -1.72536781432784
O           0.63684818044413    0.97953479579816   -1.05465821011593
O          -0.11865390543093   -1.15207497881060   -2.01064575286887
O          -1.70252519151803    0.34955426946004   -0.98339566397860
O          -0.66086460728077    0.94245473918088   -3.10091242450235
H          -1.03839648456084    0.29120998673158   -3.68898902274331
O          -0.10205272034434   -1.76427773082080    0.59904444163497
H          -0.02218441719677   -1.68335450659942   -0.36721164130644
H          -0.81301964675675   -2.38653272054400    0.76644072849087
O           2.54471540086360   -1.79939642624022    1.80060704142177
H           1.72405416995442   -1.98713547039463    1.33035726900335
H           2.44040294665215   -0.92359711951282    2.18078755734065
O           0.65180257044412    0.66989775241087    1.66226107219778
H           0.31864160643422   -0.23705838282157    1.56534452362138
H           1.09228539287024    0.85383204025983    0.81952070194667
O          -1.36245550277451    2.09052033077523    0.78729150102731
H          -0.65545459609746    1.61399038580796    1.30810293204009
H          -0.91772725343224    2.82756793308154    0.36024514950077
H          -1.64631317386579    1.08803199557845   -0.24882239838878
