    19
        -40.90561273
S           1.58147937420522   -0.46005606441081    0.67879855847367
O           2.25869878614519   -0.11582945013845   -0.53294528611152
O           0.74581197776688    0.51441244017155    1.29560286037008
O           0.80402176469076   -1.76142131701493    0.46404467960572
O           2.68427397488753   -0.87432558970102    1.72826614451702
H           3.42908977542479   -1.22074041166355    1.24071825461774
O          -0.06628705991752    0.05397032350008   -1.85604958265260
H          -0.07122550906315   -0.62894018108273   -2.52998786030134
H           0.83877917939940    0.09050617003858   -1.50092771229892
O          -1.16577543418124    2.74218236296971   -2.03484197990572
H          -0.67309621095555    1.92129684283844   -2.14915533397777
H          -1.77910120600873    2.58757513229299   -1.31206435972382
O          -1.76565667411012    0.68418466296548    0.22441617564196
H          -1.00641446925178    1.07383128410141    0.68208291339274
H          -1.41217532938063    0.41563028165534   -0.63962598829771
O          -1.38484842874303   -1.47472999977349    1.65050530030061
H          -0.11070721573558   -1.72863726046369    0.96457143965576
H          -1.17834861747244   -1.11166818336019    2.51588550351615
H          -1.72851869764171   -0.70724105284169    1.11070626312483
