    19
        -40.91864555
S           1.13992436266930   -0.30465484327120   -0.00372014155902
O           0.80382762653969    1.04153296577656    0.39649145792122
O          -0.19443926369217   -1.01110417407041   -0.42612631695341
O           2.07824402862467   -0.44365399883681   -1.06209089562559
O           1.55372623781219   -1.10425602465839    1.23082892221173
H           1.06035390543680   -0.68605429496294    2.02919336227506
O           0.15888274447047    0.16832508164353    2.90719783329064
H          -0.73304196358711   -0.16907867624591    2.67331374612805
H           0.27942027031151    0.97120358361088    2.38223132496777
O          -0.17758437109897    2.06292745485522   -1.89015518395997
H          -0.96329679331937    2.56719061245130   -1.66922738285752
H           0.25787540510864    1.84096560831344   -1.04575661966121
O          -1.97196942352023   -0.90382882808661    1.67970995374511
H          -1.47705623894206   -0.96729045077473    0.84688026940669
H          -2.27944085377690   -1.78855022215801    1.88675121045923
O          -0.03411148961776   -0.41331511651776   -2.86087201522847
H          -0.16752558220022    0.55363983543098   -2.73970785829558
H           0.92353064418902   -0.53607638228153   -2.88780486694528
H          -0.25731924537128   -0.87792213014535   -1.44713679930785
