    19
        -40.91864571
S          -0.08523559859488    1.14185172567792   -0.28476132243185
O          -0.25431714880050   -0.20831955896728   -1.06337795214885
O           0.34245347986007    0.81322375372627    1.05480022810472
O           0.76641464639744    1.99370880670090   -1.03905436947828
O          -1.51821138321663    1.67016464652798   -0.23633510088295
H          -1.96312396706083    1.23448697245635    0.58087144780990
O          -2.03727614518257   -1.81339302961155    0.29794826857928
H          -2.73944791438786   -2.09048566384179   -0.29394983710361
H          -1.36020633117186   -1.38604721844115   -0.25103790234812
O           2.71353766191446   -0.36967333617928    0.59163460588852
H           2.77101441718767   -1.14075078380734    1.15945841927082
H           1.93309392309423    0.13619370878197    0.88643764843388
O          -2.25130231222229    0.39015068036815    1.81301896264343
H          -1.35113341512145    0.45250383564467    2.16028389852773
H          -2.32522033291021   -0.51123299648372    1.43084459751920
O           2.07897031758602   -0.25610495166231   -1.99321578757911
H           2.10356394506380    0.69871956233345   -2.13684224996489
H           2.53053691398327   -0.39951168690161   -1.13138128926752
H           0.64588926344804   -0.35548447639595   -1.54534225563660
