    19
        -40.91864536
S           0.68832672216983   -0.09177763645267    0.95564875201134
O           0.89731532458587    0.41838817884503   -0.51209202242895
O          -0.65519179496586   -0.61457144520189    1.03986128127789
O           1.74544681163405   -0.98562622022083    1.27701898055472
O           0.77264294036266    1.20208774018183    1.76415308230309
H          -0.16818259594155    1.61486451623552    1.75445622127231
O          -0.56404104846478   -2.65305940316847   -0.71251743854411
H          -1.37259759063522   -2.62815560799189   -1.22839748589246
H          -0.68225518150557   -2.02148120839466    0.02174595245285
O          -1.04478988526678    2.28568390413831   -1.10118514009865
H          -0.63114970686326    3.09550512326106   -1.40660466711081
H          -0.34502950300723    1.61428722780423   -1.05446252926686
O          -1.63833609953826    1.89861002880347    1.48621861040098
H          -1.62365411480204    2.18423985910309    0.54688734113902
H          -1.89441407872405    0.96643278784856    1.47095634941428
O           1.84214195118195   -1.73618508601356   -1.39310433388628
H           1.32717102691515   -0.37432634408820   -1.01303581918156
H           2.33570717839360   -1.91898510705277   -0.58330699189087
H           1.01088967444147   -2.25593131763315   -1.31224015258185
