    19
        -40.91103804
S          -0.92433701060895   -1.13347135056284    0.45392275204465
O           0.52223779040548   -1.09569854602654    0.75772700845608
O          -1.68025267844449   -0.54744841981007    1.54245254662125
O          -1.20700551630529   -0.54890116306787   -0.83220729858438
O          -1.29698215007632   -2.65619912226574    0.37504776997047
H          -1.07877517114982   -2.99688763477711    1.23757243121962
O          -0.97122502180176    1.93180038230122    1.51488589624133
H          -1.36694737424856    1.01721278610814    1.52837096719797
H          -1.00970073078400    2.25275349697303    2.41889099372372
O           1.94935037774164   -1.57510967101844   -1.61804598820561
H           1.48648386893479   -1.57388537310790   -0.77087248883435
H           1.64121972119699   -0.80362215312231   -2.09980893716749
O           0.45420767657358    1.07704010354728   -1.94846413409305
H          -0.03271450725792    1.78312115683616   -2.37802356214503
H          -0.21985196883076    0.40461090661919   -1.66095601407374
O           1.22004259096028    1.25292636951731    0.46279305162757
H           1.05404794646696    1.31766412152834   -0.55085931819215
H           0.39472424174190    1.67729139986935    0.91885692215376
H           1.06547790545888    0.21680273044919    0.64871740203287
