    19
        -40.92218957
S          -0.48693858349104    1.03809634619310    0.15922115464371
O          -1.36900839076406    0.27306669151536    1.04042996525307
O           0.89613009068715    0.99512797630760    0.62311947016309
O          -0.58950593919699    0.58121556787019   -1.22303339846016
O          -0.97624564872955    2.51446568056464    0.22204289558117
H          -0.35093188549949    2.96624172222169   -0.38207846052259
O          -0.77632184000998   -1.99258360697775   -1.47379146480726
H          -0.65717150443774   -1.00467616105763   -1.48288703841427
H          -1.61287823950250   -2.16305703749440   -1.91205747681935
O           1.63809788497172   -1.32097943305300    1.52117569156839
H           1.46430499206262   -0.41409555625008    1.15013660739956
H           1.89360821238648   -1.18873614026082    2.43667634535802
O           1.03627965199007    2.76879025067958   -1.45428397092431
H           0.60801046148004    2.05639605036363   -1.94724781142000
H           1.55381622232862    2.32043777167505   -0.77231588249953
O          -0.71294065969932   -2.10711784827749    1.04679857011247
H          -1.10302631058103   -1.12316468568100    1.14023539897869
H          -0.73814959583977   -2.24177999575570    0.02061541215527
H           0.28287108184502   -1.95764759258468    1.28724399265194
