    19
        -40.90561262
S          -1.23698760520504    0.41761751497459   -1.21474866009352
O          -1.58671358888706    1.61792138365343   -0.52015162524232
O           0.12642382786370    0.20281529780082   -1.56562251193708
O          -1.77673349793313   -0.78490942119105   -0.43566381780904
O          -2.08197551831766    0.38596073755470   -2.54671653386819
H          -2.89229509868015    0.86489087177346   -2.38401142224171
O          -0.20671233928362    0.84025134809950    1.64236134485080
H          -0.68989513733608    1.28037832555854    0.92169617665309
H          -0.83222535785555    0.71645082879273    2.35930050554702
O           2.51035555500929    1.87386119842223    1.79957733733124
H           1.55640839962327    1.73798997788965    1.83061260964281
H           2.88653709424129    1.05487119474517    1.46747428200817
O           1.66455221858900   -0.80615598340893    0.46059589915784
H           1.56055333556464   -0.28975300612796   -0.35185054417361
H           1.10161149668102   -0.34996683436813    1.10779057717597
O          -0.00061660240174   -2.54923758780361   -0.55416410186265
H           0.71661198651485   -2.04791411647414   -0.07183620078781
H          -1.10049590213692   -1.57827840492217   -0.47269496135303
H           0.28159674394923   -2.58679332495911   -1.47194835296021
