    19
        -40.92343559
S           1.40015188335629    0.06550917925350    0.93848487715520
O           0.41346630948528    0.10758731311222    1.99644412571803
O           1.61193476772154   -1.29557071341469    0.44321362498676
O           1.09793964324505    0.99086745769791   -0.14213827614102
O           2.77695231445854    0.53080470791412    1.54657383178226
H           2.94860753794433   -0.13296191305603    2.20719239046951
O          -0.08664295582717    0.09845983028325   -2.36033437738928
H          -0.85283759817826    0.68138325415684   -2.32053218775884
H           0.55900506812672    0.48345849217837   -1.73173893488157
O          -0.42901069475101   -1.90899912333558   -0.83346623765462
H           0.47648316456049   -1.80418736661522   -0.32179970673826
H          -0.35037235654521   -1.22079732787203   -1.59264355374572
O          -1.44554413522825    1.72632067973512   -0.33622479805118
H          -0.48241546912586    1.58599097155928   -0.19991352817167
H          -1.67419468307004    2.51429515356507    0.15857812901075
O          -1.79872775800643   -0.66486720177848    0.83487305794193
H          -1.96824252563655    0.19085103363969    0.38791275374425
H          -1.12808115392005   -1.49012992078857   -0.14035560219246
H          -1.06847134860761   -0.45801452623389    1.46587441191569
