    19
        -40.91893388
S          -0.47720790082018   -1.44825881960551    0.82488863244792
O          -1.62179633959220   -1.08328792647217    1.62068738975845
O          -0.66477244720508   -1.33903888721337   -0.60850661032418
O           0.74180134432712   -0.74538062415169    1.25294271061015
O          -0.20255388184700   -2.98486365592149    1.11198983278449
H          -0.47131869244914   -3.08360693432011    2.02029112709824
O           0.09483515465124    2.66176286921738    0.18845421639196
H          -0.73398273037129    2.11614846923053    0.11005890743549
H           0.10405880336896    3.00500220037867    1.08409817480266
O           1.04328859675745   -0.35593013063874   -2.29068324210949
H           0.32460827214952   -0.77567235673311   -1.75079983679524
H           1.57134288457346   -1.07501397850637   -2.64231093339007
O          -1.95040068053145    1.02646224878786    0.07018327690746
H          -1.93295591841309    0.51949990903391   -0.74721586009583
H          -1.95308071328878    0.34551166727991    0.77338980157380
O           1.84403447200441    0.88337269357114   -0.22516088290663
H           1.44225223820565    0.15806201470662    0.45179843855291
H           1.63322617405136    0.48310840801521   -1.14494692846222
H           1.20862137440998    1.69212283334096   -0.09915821430316
