    19
        -40.92096380
S           0.56471433380704    0.76466157326992    0.01309798951627
O           0.81574229835970   -0.32693215669619   -1.00653465964171
O           1.47964423857984    1.84038111184175   -0.20801171200073
O          -0.83508643248908    1.10064422391863    0.04609349949104
O           0.88978921476641    0.10153417124053    1.39517933799529
H           1.87507006336078    0.15607288757161    1.48144615675184
O          -1.68448832475520   -1.07884985958488    1.42439885144080
H          -1.58197047816259   -0.17465788843093    1.08290934161903
H          -0.98355307302214   -1.19267605831842    2.07050656894624
O           3.40160260228316    0.71536731757445    1.20084547721180
H           3.00495444856125    1.27268130969866    0.50432060923063
H           3.78744483681007    1.31182218740967    1.84737580042062
O          -2.38927233214615    0.22893498197605   -2.02532667600192
H          -2.13483372783124    0.70107880741049   -2.81973468689555
H          -1.98970329422966    0.70455354695798   -1.27678593740990
O          -1.10079865641845   -1.89137810250613   -1.03591827589382
H          -1.41575657954742   -1.82959138537569   -0.10273885319475
H          -1.72673727192053   -1.33620774183675   -1.55077058568291
H           0.02323813395162   -1.06743892605941   -1.04035225589521
