    19
        -40.92085432
S          -0.45328409220554   -0.55157584843019   -1.23223381064127
O           0.56023132049248    0.60993278532914   -1.09572455293114
O          -0.81666296399361   -1.00305208329246    0.08820516894712
O          -1.54994707559958   -0.17656613989306   -2.06122168277467
O           0.40569154475865   -1.62253247675717   -1.92515452808881
H           1.21059154621648   -1.71772212668866   -1.33709282990163
O           2.36933652327725   -1.42536284621221   -0.23629097061806
H           1.98107425626988   -1.19614735296361    0.63369438637658
H           2.77538249019918   -0.61809052005587   -0.56321800355475
O          -2.51002554506389    1.49691185213132   -0.12035613449462
H          -2.33887004908289    0.82353730791784   -0.79943026095134
H          -2.89963550464483    2.24667859147831   -0.57676211745661
O           0.91984184261940   -0.68083650067140    1.96897483185788
H           0.18021650460182   -0.86429347698200    1.34067886526556
H           0.81352300606460   -1.29266524263120    2.69970580040841
O          -0.09342507979680    1.83803394624400    0.99896445801972
H           0.35609343319059    1.19825045172345   -0.26899191632042
H          -1.05755690201143    1.76465680390177    0.82918659041977
H           0.14742475466733    1.17084285585605    1.65706669648046
