    19
        -40.91907735
S           1.25526655777844   -0.12017266680028    1.09162994998277
O           1.02082341695526   -1.05091615673315   -0.03271623515406
O           0.71751708256363    1.18773977364781    0.79524422757252
O           0.80787672774508   -0.67787900141426    2.34642327226415
O           2.82814516178093    0.03376825186802    1.18242047436316
H           3.12117596531435   -0.70325022140979    1.71196748847402
O          -1.59508867735382    0.48312397333013   -2.17918891537323
H          -0.64909708905505    0.80742393784329   -2.12727248479400
H          -1.72651194655041    0.15235254333026   -3.06956844535182
O          -1.44444845631621   -1.18069667957947   -0.28317318244928
H          -0.39407493751814   -1.25170566795843   -0.21190757119626
H          -1.61220084339899   -0.52878671763335   -1.07591447784117
O           0.93305036326955    1.01278907238796   -1.82882120832463
H           0.90360712871955    1.38910253513462   -0.92696598528052
H           1.28816476318113    0.12697249877274   -1.67884553513115
O          -1.62053062999114    0.17294114155966    1.84161361609945
H          -1.69068490396118   -0.66822907973730    0.58835459370007
H          -0.84215661191405   -0.22650948001665    2.29069096529811
H          -1.30083307124299    1.04193194342989    1.56602943316380
