    19
        -40.91505803
S           0.61685164667033   -1.08207854135003   -0.83629036443849
O          -0.80214044267205   -0.90285383005084   -0.60532919223936
O           1.38105792047463    0.01764657443489   -0.06297481044523
O           1.13859154767748   -2.36016672492718   -0.51995917615038
O           0.91040393691840   -0.69507637216143   -2.30712037878697
H           0.39878178218781    0.12770947984552   -2.47478218799572
O          -1.16810222639716   -0.17863374291738    2.00720836700227
H          -1.05235292706274    0.76932695701523    1.82074799026168
H          -1.31675091259571   -0.57877516724654    1.13659279233237
O          -0.40324559849922    2.11944631908297    0.64169462250692
H          -0.77900696333870    2.28876698110819   -0.22741730885958
H           0.45480033957611    1.71097605625776    0.47776994020059
O          -0.94658122654458    1.19879331999112   -2.14310983859682
H          -1.64250395029846    1.20904688427127   -2.80429010782870
H          -1.17307892328836    0.49575893536383   -1.49876114500886
O           1.28477833269862   -1.04543092525608    2.18768763124275
H           1.48454471771254   -0.35002388110306    0.90922711619729
H           0.33772578678827   -0.76632628352621    2.34739798163121
H           1.27622718004254   -1.97810601882542    1.95170805904651
