    19
        -40.90916439
S          -1.34706482431429   -0.16076819669143   -1.02903379419304
O          -0.45025116495680   -1.25124165144063   -0.78669936396815
O          -1.53963494870834    0.76440983160055    0.04109581113021
O          -0.97672509190828    0.59094520590243   -2.30364777323336
O          -2.73411284364745   -0.80010578417127   -1.40111009193191
H          -3.40318923275150   -0.12305310740380   -1.31597860503881
O           1.82471733021286    0.33514835879982   -0.39978482294342
H           1.22298752703893   -0.38270962057930   -0.63573226431060
H           1.82722178729864    0.36259985922552    0.58112662041806
O          -0.04835778737818   -2.01824852055871    1.78592092454132
H           0.32657936093670   -2.89876589101579    1.71607897843773
H          -0.29122252171953   -1.75683621524129    0.88048133006251
O           1.54204298989402    0.14508161502892    2.27344567053909
H           2.22376107346818   -0.14034541975401    2.88392794849499
H           0.87828401347169   -0.57127502922872    2.23775018711507
O           0.38874376028219    2.34275804006855   -1.20142159207046
H          -0.17175265960309    2.43894137413906   -0.42118811661480
H           1.11601119202226    1.71387909648979   -0.92389013192508
H          -0.38803794962265    1.40958605482224   -1.98134092448078
