    19
        -40.91277705
S           0.57390269087158    0.64925800452304   -1.48792759259418
O          -0.40156357007345    0.01557191009038   -2.33138495244462
O          -0.04298812248884    1.40427825333612   -0.37980475474623
O           1.62960770853967   -0.21151151768796   -0.98597011532317
O           1.30482783083260    1.74077193143134   -2.37949497427533
H           0.63685091986405    2.07566837665819   -2.97103956124816
O          -1.58205366739208   -1.99224158500481   -1.02109571854723
H          -1.10227041402379   -1.34283591149480   -1.57329449251574
H          -2.35809699957803   -2.24796699671368   -1.52309974908876
O          -1.60331944452342   -0.30419413379992    1.06023329187181
H          -1.23902612099020    0.42436692250851    0.52821277338040
H          -1.69947832458159   -1.04717207322018    0.42788613412398
O           0.35447256563391   -0.69345957532418    2.68240013676713
H          -0.46873007114268   -0.65531479220718    2.09644456245506
H           0.09655168437966   -0.34873511934152    3.53959315779377
O           1.72874057053219    0.81704971795519    1.23826444942827
H           0.96111919148166    1.31056469689938    0.75919315597042
H           1.24364949560606    0.15842756192893    1.91731070863821
H           1.96780405710159    0.24747431950581    0.40357357036900
