    19
        -40.91520705
S          -0.93202949785010   -0.77072053819681   -0.30510439791739
O          -0.85647563753145   -0.81793094742518    1.21436620159581
O          -2.06472076438192   -0.00796162303993   -0.71731744577839
O           0.34013733504719   -0.32413666681587   -0.84000854479053
O          -1.11193559920362   -2.26542531663914   -0.69223065424215
H          -0.65476030517543   -2.42102751125251   -1.55603661406973
O          -0.87047674604661    2.32626991191660   -0.10416302846150
H          -1.46940125776347    1.58261765173440   -0.28963156206746
H          -0.33208272490386    2.42894457869497   -0.89177229619632
O           0.66209947236785    2.19728548768340    2.11500042949924
H           0.06928358187624    2.26566576494767    2.86541189164740
H           0.10535597382552    2.32552753105591    1.31737887161685
O           0.46908363117640   -2.15345727030203   -2.76541903177099
H           1.26917721047704   -2.68361270445837   -2.72787485997017
H           0.65853715192787   -1.31358605860750   -2.31019078550110
O           1.53327980739909   -0.23093693456056    1.61151997000092
H           1.67490755010012   -0.16714146917626    0.65702355206593
H           1.37135111572975    0.70070680564291    1.91471013708410
H           0.13866969292609   -0.67108069120965    1.50433819725529
