    19
        -40.91892048
S           1.03215053223911   -0.40907059728889    0.38066910625640
O          -0.22020492408881   -0.49955432811242    1.27311638468076
O           0.86335361064127   -1.31282290377188   -0.72429140179170
O           1.29674124149981    0.95859079174425    0.05109611696312
O           2.16192155546098   -0.93418013645234    1.30048209100356
H           1.94044914802677   -1.88707151609660    1.45022842408188
O          -2.20243246046808    1.63204576824745   -1.13439524192365
H          -2.57263643934037    2.36151974187108   -1.63442331853492
H          -1.45949430712210    1.27399239159098   -1.67237023345416
O           0.92626355647229   -3.22313694957669    1.18147867573796
H           0.78926054938263   -2.92287064357628    0.26883211199268
H           0.09138555030410   -3.08978354726428    1.63891852332477
O           0.01666968926345    0.75962555786853   -2.35434520763870
H           0.13571906957254   -0.19093859278876   -2.23515142133192
H           0.65095167333891    1.14908327984682   -1.73644903152341
O          -1.03246518423799    1.86393573700295    1.22755966503352
H          -0.17169362314766    2.18877521926838    0.93379050805086
H          -1.60112764388665    1.83333176209529    0.41706122344736
H          -0.64481158375274    0.44852895559451    1.36819301576321
