    19
        -40.92453842
S          -0.09135014473013    0.09181546835424    1.51850257551994
O           0.14549094982866   -1.30598127463401    1.17498783398151
O           1.03298744967856    0.92416731948506    1.10609200708487
O          -1.35769994125934    0.58032873114028    1.01464725041236
O          -0.17559828639229    0.17303528075585    3.09367438992993
H           0.66932978219209   -0.14079508064274    3.40261439631705
O          -0.12658939871090    2.09293724948800   -0.90604268209308
H           0.42466261455782    1.81010721330450   -0.13395399153054
H          -1.01627382776582    2.15254740788617   -0.53902447026738
O           0.00020395746629   -0.08265585495378   -2.17182924700171
H          -0.06712591398514    0.88731376140848   -1.78273356504592
H           0.84934775911008   -0.48348387607579   -1.71251585715521
O           1.87205333709062   -0.94895191807933   -0.72481894558315
H           1.29096319743559   -1.25823783400980    0.01604897617274
H           2.30413069308498   -0.16677609766067   -0.36204430647439
O          -1.77796493957516   -1.22838918298385   -0.80102224545564
H          -1.34150285737548   -1.96213838524698   -0.35207871711532
H          -1.83682786395762   -0.53209920521037   -0.10157180389741
H          -0.79823656669406   -0.60274371228944   -1.73893158784369
