    19
        -40.91226057
S           1.26046682123700    1.27315768072953   -0.24698793599528
O           1.94178742308037    0.18434277353519   -0.87273994785499
O           0.38602592696805    2.02711333460896   -1.24327710638308
O           0.53447720680505    0.97240664215547    0.95102218426554
O           2.32426103539027    2.37121346990205    0.11425468516243
H           2.93404912222300    2.40864392879421   -0.61948987553565
O          -1.06283993867886   -2.63862839030274    0.75990816630133
H          -1.26931900756336   -3.19379738057370    1.51331806674964
H          -0.11433612658081   -2.39524695898389    0.84791669661177
O          -1.97923241678625   -0.12594838625287    0.60742271733173
H          -1.19816816981594    0.31621266009047    0.97327429209871
H          -1.77699190251084   -1.08882843229760    0.64271826288441
O           1.40187526286860   -1.62249858418614    1.11224740097081
H           1.79820566748931   -1.41039851637238    0.25689076472351
H           1.11391642158872   -0.76294611297636    1.44849307182463
O          -1.62935648702397    0.68009726646059   -1.79694393300749
H          -2.35834440943796    1.25931347883495   -2.03267928206605
H          -0.45154864009270    1.45453142515809   -1.52938890576561
H          -1.85492777891372    0.29126009154019   -0.88595933227972
