    19
        -40.91226058
S           0.76934423902308   -0.91867087813047   -1.35426364331901
O           0.44023825337281    0.27177730633407   -2.07263493816630
O           2.15000130381794   -0.81747760978848   -0.71464696803745
O          -0.20188998189046   -1.38838178851177   -0.41144266676234
O           1.00229725839141   -2.06936933757840   -2.39799035377550
H           1.47550808736592   -1.67880960502737   -3.12952529943432
O          -2.05083488473261    1.64106153674112    1.32893503872351
H          -2.12975424420533    1.33172329437298    0.39902995856037
H          -2.93464063297977    1.61208230742150    1.69835288427793
O          -2.10733442985333    0.46205663038458   -1.08721448139438
H          -1.39478102783513    0.80791869297682   -1.64068732800773
H          -1.77073763056384   -0.39545653768115   -0.79349988822416
O          -0.19572986023174   -0.14778362736443    2.05897947312234
H          -0.33004591491123   -0.77414562012516    1.33162210772780
H          -0.86336192092047    0.56261100504252    1.92120729989164
O           2.07195292084762    0.71417617719623    1.24245842298008
H           1.17620868589067    0.45860119109326    1.64799148527287
H           2.74147484125894    0.46372635810473    1.88393978061228
H           2.15208494835476   -0.13563950544498    0.08938913590742
