    19
        -40.91907685
S           0.95566303829489   -1.09329530804940   -0.82122616335850
O           1.42582036803356    0.19756913356629   -0.27498245423466
O           1.33436885985753   -2.19907157952245    0.02707244580905
O          -0.45385297540426   -1.03613376398287   -1.13266804382417
O           1.72700203185219   -1.26898006511545   -2.19239365268454
H           2.57345489260464   -1.64043096003610   -1.95773236209025
O          -1.59546932120954    2.10042747085863    0.75354143201314
H          -1.52416191603190    3.04211535424900    0.91984189855465
H          -1.32078055566978    1.95287989503673   -0.19809343544880
O           0.11078856603573    0.55702166962154    1.79854057297043
H           0.76897236781541    0.46294561802109    0.97938516727104
H          -0.62587413783765    1.21460991152592    1.47204204615977
O          -0.55689187177466    1.56318399095912   -1.57607685558755
H           0.38553012125700    1.57294106141818   -1.36383029849871
H          -0.75520733629914    0.60769566471785   -1.63392732165642
O          -0.79428045852305   -1.78159065122174    1.49925890881515
H          -1.36327369911481   -1.69223149283337    0.72375325557698
H           0.03157093224801   -2.17205023277631    1.13478082986931
H          -0.32337887615653   -0.38760571638479    1.84271404030177
