    19
        -40.92007319
S           0.41037936844073    0.41392514791065    1.26766569238079
O          -0.73024269005031    1.00244473691004    0.53747827712139
O          -0.03690693825260   -0.50963651399640    2.28610880413925
O           1.39146439694274   -0.11202055532729    0.35529206816780
O           1.08857729560739    1.63298875924326    2.02143180443585
H           0.59228267710524    1.70078818438443    2.83160043700801
O           0.64276193518727    2.15194995158789   -1.47396216359945
H           0.07591794426566    1.89837044168459   -0.72166785307670
H           1.49311186834253    2.38242813126206   -1.09465170556923
O          -1.44498808038481   -0.78089729728431   -1.07927772777523
H          -1.30451565014432   -1.57609371177705   -0.45711770546477
H          -1.32223533255481    0.02051703464665   -0.44741543510520
O          -0.90938776878473   -2.44623527576617    0.77407029909099
H          -1.58989617617907   -2.91565625761134    1.26166130398382
H          -0.50935973134122   -1.79859646846451    1.40590160949499
O           0.74057579203859   -0.41194847483290   -2.17077539176273
H           1.22712466867000   -0.51899524775733   -1.32282560376457
H          -0.53170596586495   -0.70096008175274   -1.69667695121513
H           0.71704238705064    0.56762749685232   -2.27683975853881
