    19
        -40.92079119
S           0.94112110621402    0.74932446864740   -0.87143034361712
O           0.79449479203177    2.16036034717580   -0.62322891854209
O           1.58265117039309    0.04687750741934    0.24152164760234
O          -0.28896303385401    0.08104377854612   -1.27306780332433
O           1.91715064132552    0.58945165596347   -2.10715112460282
H           2.65762623343037    1.14155157064171   -1.87626138762442
O          -0.58389025306716    2.18515186678137    1.63172849429534
H          -0.99711529668120    3.04665116973700    1.71496814143395
H          -0.00167487885209    2.23632343786937    0.84292636007721
O          -1.75282285082248   -0.07646334346886    0.94892780574268
H          -1.46681239658414    0.75760321067461    1.39024769839057
H          -1.48578612833599    0.04990311883152    0.01585054779211
O          -0.24780116301723   -2.53747042849472   -1.12685054612294
H          -1.09523301076516   -2.86815475207420   -1.43146091893593
H          -0.21023309317181   -1.58500745331596   -1.38021888754244
O           0.12926866656777   -1.68123043061610    1.25569360339301
H          -0.74241576624417   -1.06734936578404    1.29037197168906
H          -0.00012875507773   -2.24581793438037    0.42223776347732
H           0.85056401652457   -0.98274843416664    0.93519589641941
