    19
        -40.91836655
S           1.03876789206506   -0.10128149977987   -1.67346746029595
O          -0.29166242746899   -0.67065721181283   -1.94003167954838
O           0.97477213545864    1.34522079644573   -1.57400692788751
O           1.68458926776128   -0.72804879661697   -0.54330742270287
O           1.91034103381292   -0.43641976026162   -2.94492366654087
H           1.50524679556862    0.10161559357468   -3.61830914152256
O          -0.45626324100137    1.85377744370219    0.53091914112062
H           0.11425642823123    1.86522987240268   -0.27888398710110
H           0.07315757362356    1.39548489502728    1.20459086044414
O           0.92958889002822   -0.13994859009644    1.84247185785436
H           1.25385451097695   -0.38871068338388    0.93203192231671
H           1.67443161321385   -0.28903820378511    2.42739949985310
O          -1.42109522921765   -1.42429218265367    1.81678944190731
H          -1.90086000529348   -1.20407277625516    2.61747867773206
H          -0.50964504883448   -1.07047075766739    1.91879722725375
O          -1.95458363314081    0.00917979844758   -0.25793993109129
H          -1.86237351576330   -0.66258164194134    0.49541908724279
H          -1.45605959432916    0.87408610671267    0.08848054067166
H          -1.30646344568390   -0.32907239204344   -1.04350803969976
