    19
        -40.91505826
S           1.39323153715465   -0.44322424987441   -0.32495262064577
O           1.00554009716426    0.90301444642604    0.04420032242845
O           0.12732367277193   -1.33116069233056   -0.33632316544213
O           2.09567504874990   -0.57129614395131   -1.54809732969006
O           2.19215041176519   -1.04728668981661    0.85666380491184
H           1.69946982978089   -0.79375397001093    1.66900920910864
O           0.61989222579489    0.27124363445808    2.54523080840961
H           1.03561808286306    0.83071428613995    3.20530575273087
H           0.63636832057553    0.76494878110962    1.69870375509668
O          -1.38097501811758    1.46759634979247   -1.16864364994033
H          -0.49335735087279    1.57771158777820   -0.79428460867698
H          -1.90578141332068    1.09351127202230   -0.43974349927871
O          -1.96933788030496   -0.04269012440611    1.09111027103905
H          -1.50043447607474    0.14092926605239    1.91058213383729
H          -1.50390485327407   -0.78454030896650    0.68735902936073
O          -0.73325525737391   -0.63598091803213   -2.56761861462377
H           0.08820638859945   -0.43224159602732   -3.02524301854718
H          -0.29886594142298   -1.19248960276888   -1.28029078792355
H          -1.10756344442672    0.22499466241898   -2.22296777214641
