    19
        -40.91641695
S          -0.54780211541750   -1.01400677710456    0.14753741232138
O           0.77923746617417   -0.55601290382698    0.50025001508292
O          -1.56858699475110    0.05272328931895    0.49380492530529
O          -0.68435363982641   -1.42762054151972   -1.21580418700703
O          -0.93751862307260   -2.18568176005966    1.10133281514993
H          -0.31531639154166   -2.91268040572670    0.88932618653422
O           0.64391008892463    1.00719795836670   -1.73377142018642
H           1.04641312913622    0.53366007568152   -0.99215626199176
H           0.02659517671766    0.37574015683078   -2.11833206002068
O           1.06701700587412   -3.33081816933486   -0.16263581076261
H           0.65242378413044   -3.07856786823189   -0.99640113910765
H           1.68488022462754   -2.62568270363995    0.05602899064930
O          -0.11141074011248    3.18682598159900   -0.31174739579760
H          -0.95769964699774    3.48620035855318   -0.64850385302596
H           0.21331979710663    2.50693182304394   -0.93752818562706
O          -0.25317826270391    1.67790123528974    1.83972538060917
H          -0.16832298831141    2.38717419396638    1.14773334413395
H          -1.12953903575812    0.75744367684558    1.14939902925492
H           0.55993174574268    1.15927239999492    1.79174219447475
