    19
        -40.91941570
S           1.60267981782025   -0.10254274964174    0.21190169612351
O           1.12160545462537   -0.35203253247861    1.57618313490682
O           1.21524970419931   -1.18112129934769   -0.67914296911890
O           1.21295288887623    1.20184930090933   -0.27479184270694
O           3.17496126244369   -0.10636322444669    0.29905896576477
H           3.37013031948464   -0.98602027963739    0.60680810227207
O          -0.71127350780551    0.14357808998528   -2.19507066326222
H          -0.70139290405523    1.08992289884939   -2.03792373266442
H           0.15022327549817   -0.18556497194112   -1.89637843352031
O          -1.37094844627634   -1.80575631365380   -0.48514603482535
H          -0.39627836365595   -1.90196430415830   -0.53574043517045
H          -1.56287837827344   -1.21011608033770   -1.23572767685319
O          -1.15349592396560    1.97887580797737    0.44878365732645
H          -0.23500903218849    1.77818486273058    0.13082690076837
H          -1.08046886774847    2.74618143156601    1.01936210135361
O          -1.35471050814242   -0.32704969909849    1.52014651540998
H          -1.49856293570422   -1.00724633060905    0.70582106187703
H          -0.31696927922301   -0.38545139586557    1.68322417896229
H          -1.46581456591526    0.61263677919946    1.13780547335550
