    19
        -40.92079087
S          -1.06558261607174    0.79878736528199    0.66008307591516
O          -1.04580619160369   -0.61309491076882    1.04768153558621
O          -0.46702347110250    1.65280645168276    1.65316993049766
O          -0.53480434836503    0.98068042973982   -0.68388505488052
O          -2.59345297371068    1.19843069228897    0.55563770202997
H          -2.88745202440819    1.18337611143612    1.46110425201122
O           1.88692764314177   -0.13239576169362   -0.63126732021580
H           2.13625691621052    0.06495573034439    0.30199775528065
H           1.14827179173971    0.48401944681784   -0.81092340717465
O          -1.09560670710458   -0.93332985531224   -2.38700291506362
H          -0.71200099631703   -0.70106005644642   -3.23506894203524
H          -1.05296749145082   -0.12202354439528   -1.82758037105150
O           1.95170728019612    0.61583522110669    1.89534443926057
H           1.04391928046342    0.98953657058660    1.90870000788631
H           2.51965190429685    1.28025094765600    2.29011736208978
O           0.26435324947625   -2.02053717365080   -0.51126103068684
H          -0.27651665824421   -1.82344715896439   -1.34745145774593
H           1.09232702711228   -1.35125314648691   -0.57533484992293
H          -0.31220159425865   -1.55153735922488    0.23593928822215
