    19
        -40.91557443
S          -0.83877448232407   -0.07304182632778    0.71741872882976
O          -1.90672162271208    0.79998788903998    0.35788495505122
O          -0.22441916047564   -0.79224843047929   -0.37961912940122
O           0.22305540344782    0.69346324084304    1.49403097497496
O          -1.31630420524918   -1.12339456232715    1.76182020133184
H          -1.73409822097494   -1.85664967877008    1.25272161956896
O          -0.24650806141303    2.65849909043979   -0.70806430697428
H           0.02723650468607    3.14523727790322    0.07204837850529
H          -0.99977107283445    2.11018668252066   -0.43339517659648
O          -1.93895163533364   -2.82858958229251   -0.11692452309092
H          -1.33370983298132   -2.22721187459684   -0.58318195918723
H          -1.55514598356761   -3.70819101776565   -0.15804732711712
O           1.48017407107552    0.85558998721046   -1.77238180401476
H           0.98024952145428    1.67439251187352   -1.59251164346899
H           0.82842246153905    0.14896350776882   -1.65635474686758
O           2.48435996017783    0.22119961627733    0.52640585443563
H           2.60546769356551   -0.72882031929634    0.45923385079761
H           2.27041331230919    0.53914507987854   -0.40429153884167
H           1.19502533961353    0.49148241813778    1.16320759209368
