    19
        -40.92037976
S           0.88495126237727   -0.25798616228584   -0.56241972657868
O           0.50491806967948   -1.30481697365972    0.46951938652540
O          -0.26939417757240    0.02818357231933   -1.39832134444720
O           1.46906810209725    0.89071484487798    0.05289383106857
O           1.94529984225665   -0.97067453404268   -1.42734580116686
H           1.44327371882728   -1.58934057802055   -2.01524624087589
O          -2.05719610687415    1.15999954566868    0.24884452472171
H          -1.42414701610711    0.86292557260185   -0.43310150966749
H          -2.93255862196187    0.94526184484029   -0.07964556452432
O           0.14068693925563   -2.08478801153531   -2.93346672389618
H          -0.33770389357138   -1.35376483345734   -2.49930759447450
H           0.19657184432730   -1.86845410314983   -3.86753678482633
O           0.98346369273975    1.70795357233061    2.57124349597525
H           0.66316494185123    2.60882565681308    2.49071774593469
H           1.34698440686844    1.47255954793433    1.69739850966721
O          -0.84191651871568   -0.17759993275395    2.21128618536606
H          -0.19121808007029    0.47611602164514    2.56690735550308
H          -1.44158400466893    0.34317365972169    1.63088280818842
H          -0.08266440073943   -0.88828871984561    1.27669745750875
