    19
        -40.91940426
S          -0.30929942618028    0.32664268243547   -0.97041848158297
O           1.13061156810783    0.52907578884580   -1.16117594238796
O          -0.64593097803999   -1.08113184088160   -0.93208288829252
O          -0.77527645783434    1.02735203861333    0.23176866993537
O          -1.00026276076528    0.98756802080857   -2.19713686812010
H          -1.94282499338126    1.03460185030407   -1.93183629974275
O          -3.20546779662402    1.20677108530833   -0.77525382148586
H          -3.57000111077478    2.08554761358086   -0.64569940156676
H          -2.47429887405618    1.10850882963911   -0.13487264568066
O           0.87855456967374    0.73283936154605    2.22117787486421
H           0.16529104986255    0.84381469505562    1.53938945800100
H           1.15983652233015    1.61871679901008    2.45948120885287
O           0.97148753209894   -2.66322424772022    0.30402085794935
H           1.25950488796238   -3.30608867326669   -0.34757750277943
H           0.24400055163218   -2.13885337449741   -0.13201422739016
O           2.36296517237117   -0.59295930625458    0.65268626044522
H           1.88770668310514   -0.10574707385566    1.42375959588754
H           1.91170573410878   -1.52669591965032    0.59168540219815
H           1.95169813642110   -0.08673833901759   -0.19590126912376
