    19
        -40.91833249
S          -0.40679433673266    1.67730573370148    0.03002613863445
O           0.56256838140312    1.04219955321826   -0.84089206092817
O          -1.73432448794698    1.77788495126598   -0.52310341188924
O          -0.41380548290013    1.05572186815830    1.36361690579049
O           0.11048843930903    3.15788903186378    0.25296735767252
H          -0.64830658579770    3.60269421946790    0.61826844057754
O           2.57983388891038   -0.36799182950627   -0.03167694084274
H           1.93148527319986    0.29072284513154   -0.39018737006337
H           2.80425828474153   -0.95205205419025   -0.75898964777148
O          -1.52364184391335   -0.58810867868035   -1.65448300936157
H          -1.79972493134138    0.25963463609003   -1.24558270124252
H          -0.73705304628658   -0.35426677053218   -2.15554867210635
O          -0.81147875066400   -2.38582946194314    0.10990897235166
H          -1.09473022782826   -1.73690883911739   -0.59285381812442
H          -1.61779620735859   -2.68230946397885    0.53600573868809
O           0.77160785300313   -1.07966197359534    1.60646420208158
H           0.15773477737949   -1.68697391331543    1.04478104443385
H           1.60704287621632   -0.90031311972860    1.04117591922536
H           0.26263613661383   -0.12963673430778    1.59010290286368
