    19
        -40.91905000
S           0.34206660548103   -0.04322689689461   -1.11469543129181
O           0.26807337401411   -1.23776523425076   -0.14428082251498
O          -1.00622187934648    0.41062789133206   -1.34690623586210
O           1.26650753163653    0.92740420765124   -0.62772597556627
O           0.89365989081959   -0.67050366583299   -2.41900823193674
H           0.18375196375218   -1.28912693943835   -2.72282651979089
O          -0.90683891418048    2.22947564666719    0.67935414298807
H          -0.08777287928457    2.63905914119023    0.38693389718836
H          -1.16435244097817    1.63979114831468   -0.04724220316137
O          -0.15132195837908    0.81349202976133    2.83438435291594
H          -0.92257783010736    0.35494208275978    3.17080067070994
H          -0.46836055145430    1.39686126373364    2.10858948356884
O          -1.34809321317100   -1.99389544609175   -2.51913853320644
H          -1.67556395816027   -1.14505392585259   -2.18091359948446
H          -1.32526035540655   -2.59515815612673   -1.76960384624064
O           1.81005323813084   -0.50966218431709    1.67003766449061
H           0.93137475402405   -1.06522521242373    0.65121310922860
H           2.20633461050116    0.18961058973164    1.13439196424715
H           1.15454202211164   -0.05164635993345    2.25663610372446
