    19
        -40.92453848
S          -0.08583872054551    0.65957223649401   -1.37118494230280
O           1.14352683356840   -0.12505316586685   -1.33516364157266
O          -1.25426995203530   -0.20283734124466   -1.23738976055076
O          -0.08187040798748    1.74211414039397   -0.40991803417776
O          -0.16457496593151    1.32993815651685   -2.79914301419864
H          -0.17514416504229    0.60135894275201   -3.41305164346104
O           1.79714294557926    0.86543363159864    1.15428997068496
H           2.31625184566581    0.40799875369215    0.48214341015393
H           1.15253286187959    1.39675414346893    0.62564585408642
O          -1.89216312903648    0.46077594064350    1.19445963956388
H          -1.63954119165162    1.39053143429538    1.15577086521718
H          -1.84052389446781    0.16682909964634    0.25071459973422
O           0.23695294355025   -2.20591583190579   -0.08434724579169
H          -0.65525850905766   -2.19946929166881   -0.45047838822501
H           0.71627237921782   -1.52981548172528   -0.62797654188150
O           0.12339354586561   -0.81301929408607    2.01178858564060
H           0.88398034813478   -0.12708553089514    1.79620662882749
H          -0.76731356274301   -0.29927778111350    1.81457612662782
H           0.18644478503228   -1.51883275100095    1.24305753162455
