    19
        -40.91617313
S           1.46149779919441    0.10699992156126    0.26277151206966
O           2.55304060659969    0.42328777513647   -0.61304543346801
O           0.55340767699890    1.25263075140514    0.47916411312512
O           0.72162834385328   -1.09351280850468   -0.03669060012589
O           2.09840555213364   -0.16289205490263    1.71436801395295
H           2.89937791745837    0.35365081293125    1.74198920682171
O          -0.80903125779880   -1.62095354497760    1.97799840337875
H          -0.18726259801740   -1.66214266906281    1.20953307836425
H          -0.26371333406180   -1.42245188393293    2.74251626441660
O           0.48323725021054    0.85142003868571   -2.28471751045308
H           1.32142837758392    0.54122801331926   -1.90548512417861
H           0.36592962463826    1.73347502502024   -1.92009140219536
O          -1.86792559855353   -0.29929858503405   -1.68247727340065
H          -2.43527114993779    0.16055080898714   -2.30493220493789
H          -0.94147094532899   -0.08756917057076   -1.93897946032507
O          -1.73891605511777    0.41042842916093    0.75912864652334
H          -1.54685097496968   -0.42407348366628    1.32308749457935
H          -0.76009580599143    0.86248898674007    0.67414232949840
H          -1.90741542893530    0.07673364773397   -0.19828005362960
