    19
        -40.91907690
S          -0.96967198608147    1.24286454390070    0.54562953710516
O           0.05132536843299    0.54770205290181    1.35799430311937
O          -0.49461821132625    2.52340468657318    0.07661592341727
O          -1.47451208610288    0.37667291931968   -0.49473570070167
O          -2.16986479845881    1.52343960240533    1.53900245896597
H          -1.93747973264149    2.33111112584492    1.98978200851718
O           1.14072325322633   -2.42433239800910   -0.58629502304181
H           0.25503519684652   -2.34811213168649   -0.12515532857179
H           1.62438968217993   -3.12434894784695   -0.14412844011156
O          -1.02587503611193   -1.89857317396561    0.76402030216708
H          -1.43319844640036   -1.23103072010253    0.17730758223296
H          -0.66940266540881   -1.36164152932650    1.48350870995526
O           1.87318754462844   -0.03334343940593   -0.22303967902142
H           1.19240696523560    0.23148267151735    0.53868732564768
H           1.66966521038666   -1.03334438022910   -0.42358338873590
O           0.65320339921994    1.33552949837021   -1.95993656465589
H           1.52212105097803    0.51612714546223   -1.03379367703248
H          -0.13065741851778    0.80009245934828   -2.13920767170724
H           0.32322269995841    2.02630003488492   -1.34267267758380
