    19
        -40.91464805
S          -1.09306786540726    0.57172582169354   -0.83374098127831
O          -2.19535000430826   -0.47239269820279   -0.92647242018929
O          -0.94123321107842    0.98572003314295    0.53077075764139
O           0.09566693260535    0.15340268925560   -1.50907881387957
O          -1.68493855147270    1.76821881458712   -1.65343464474161
H          -2.35447244601174    2.19014468449851   -1.11849099539764
O           0.78379082761567   -1.81214381868807    0.34754348230504
H           1.19379415960577   -1.14101555616000    0.94823634958415
H           0.71886780573282   -1.37379450969199   -0.50988055753063
O           2.48030321872438    1.28594770784030   -0.75744637825407
H           3.19091632337534    0.88829882283591   -1.26432245339240
H           1.65022245965466    0.95763406010348   -1.13982456563445
O           1.52277656321766    0.37393143258926    1.65426963015432
H           0.65099340681992    0.76805787409679    1.51088754747356
H           2.09231368203329    0.79283177278429    0.98616664529041
O          -1.67391300188472   -1.77053236865884    1.11774760241287
H          -1.64413458932214   -1.09842562267018    1.80611223394124
H          -2.08039727922865   -1.09898418028187   -0.07781508190256
H          -0.71213843066410   -1.96862493907023    0.88877265339527
