    19
        -40.91593759
S          -0.74993042541557    0.56306369273138   -0.63735619113750
O          -1.03391586209691    1.26629020959924    0.58240232431761
O           0.58008319430703    0.74714710471857   -1.15162842600081
O          -1.04787703775056   -0.92045566767952   -0.46934501965907
O          -1.78851281126103    0.98745989811350   -1.72318072119577
H          -1.62147269521916    1.94212667272531   -1.86625826318286
O          -0.43407572598084   -0.68248551379591    2.36397691237118
H          -1.14925213527186   -1.27485504646707    2.11879181136173
H          -0.61558937156314    0.14625205652438    1.88774030150452
O           1.84049520184372   -1.81894014843072    1.48362916100284
H           2.01231870746772   -2.56978559350105    2.05467945507205
H           1.07296076639232   -1.34301832310750    1.87204571455858
O          -0.55497113545362    3.28043253572072   -1.33487436147582
H           0.28152127868858    2.81240121398181   -1.44635318025120
H          -0.73038707800000    3.28392184441225   -0.38780033080418
O           1.14699659982196   -1.91000619348808   -1.05538421178398
H          -0.18448686355229   -1.46928724903133   -0.76772224258377
H           1.45568027484988   -1.05270736732028   -1.38383578973507
H           1.52041511821149   -1.98755411576164   -0.13952695237748
