    19
        -40.91892672
S           0.37252463252921    0.96694958272939   -0.99192703343737
O          -0.35843193162035   -0.21731765873849   -1.36911748462793
O          -0.44811540623258    2.13598040193827   -0.75996137898645
O           1.25846514819620    0.69710633081448    0.15611410025615
O           1.33907188556719    1.30988421147509   -2.19575901533574
H           1.60198232920594    2.21251218648192   -2.04143479447400
O           1.64205583274144   -1.93577629570821   -0.78986391315925
H           1.04566071560737   -1.36354968959828   -1.30123618075632
H           2.19423500249854   -1.32761627802994   -0.28977702453687
O          -2.01188803177448    1.36525473559374    1.16650219800887
H          -2.22406112866024    2.13565399190668    1.69802087375989
H          -1.52486714222116    1.70084867813507    0.37083148905805
O          -0.72099176970262   -2.28758717018370    0.40527827610101
H          -1.09608158917349   -1.78245765202682   -0.33347916340940
H           0.18595819810604   -2.50459086745988    0.09080057397921
O          -0.23415353136743   -0.31289562222979    1.86060024465491
H           0.49441328013588    0.11500629971189    1.23396100720269
H          -1.03293993686006    0.31353406580557    1.73077378878957
H          -0.48283655688851   -1.22093925064305    1.35967344693016
