    19
        -40.92113573
S           0.84643720498142   -0.83973254119802    0.03311995815211
O           0.76713734885356    0.44657306052891    0.90524297326399
O          -0.27049363208736   -0.80576392012149   -0.89190558230025
O           2.12868353359979   -0.94229858489695   -0.57058781170352
O           0.62007919602422   -1.94701423321064    1.05809862565013
H          -0.13719148614334   -1.64213745673644    1.67945323242448
O          -2.65091123502617   -0.52455233914722    0.23957266800485
H          -3.22769204094337   -1.22485209203158   -0.07177988398891
H          -1.82338565360495   -0.59605272248079   -0.28163334185747
O           0.24187123667415    1.43315577426268   -2.31382933541268
H           0.02891093170834    0.54989686169962   -1.96241734550143
H          -0.57968260101024    1.92866097987399   -2.32587455819216
O          -1.23968192239278   -0.92395207017997    2.44063002632811
H          -0.84293007667772   -0.07077031608645    2.63992380092160
H          -1.91370406444177   -0.75554958406198    1.73676350505253
O           2.25370921003362    1.82379409037718   -0.59626010683492
H           2.81319416318325    1.06572746047269   -0.80897978337302
H           1.61919093549460    1.89557584857157   -1.34245329394140
H           1.36645895176839    1.12929178436554    0.43291625331293
