    19
        -40.91907732
S          -1.62037919876789   -0.37309236737840   -0.12614732938645
O          -1.07517157891151    0.99488542356928    0.00531963549881
O          -1.98674465893662   -0.67108404709283   -1.49088297242289
O          -0.73170998825812   -1.33944113878587    0.47720163960725
O          -2.95377417420812   -0.37217628092644    0.72712467387081
H          -3.62487834613131   -0.03026053845962    0.14212698306572
O           2.52277846095753    0.64918001502745    0.86136276625349
H           2.99748505113543    1.40645370282635    1.20871144311040
H           1.77305040221599    0.46045450286569    1.49780760608753
O           1.09367828825327    0.96275547294332   -1.19899134655761
H           0.15856504501044    1.09955377887777   -0.72881917439020
H           1.76983073991102    0.85537409511777   -0.41610980723617
O           0.34010720489196    0.30207064450506    2.24366235706189
H          -0.22906940632419    0.98386982792703    1.86361476829076
H           0.00440503496180   -0.51628144676263    1.82739688013792
O           0.49432222092853   -1.36023136658086   -1.98939778386938
H           0.55247358183521   -1.88091401527187   -1.17769562350058
H          -0.47020319550517   -1.19687470373821   -2.08875572685860
H           0.98523450694109    0.02575844132876   -1.63752896876488
