    19
        -40.92003349
S          -0.48707437688426    0.12091613005054    0.72150923870921
O           0.50616638341180   -0.92312377428831    0.73460228549832
O          -0.29682260073907    1.05905127944601    1.91526568338536
O          -0.50487768214427    0.86773660138011   -0.51393441804090
O          -1.87904039099541   -0.45460948873363    0.99284253588774
H          -2.30058605333828   -0.64433225903712    0.07630335699584
O           2.18161787900459    0.85569965974290   -0.69525205384458
H           1.23719315588819    0.94483114125450   -0.91255026525835
H           2.28195666219330   -0.05491953761282   -0.39990585239800
O          -2.48802743576767   -0.86579343731403   -1.42315182574743
H          -1.82895597752896   -1.58473041891107   -1.54995561036725
H          -2.05411430241344   -0.06020475570115   -1.72944620216708
O          -0.40859059943216   -2.52832025196278   -1.20655178727054
H          -0.49935743413737   -3.42296236977373   -0.87212997270966
H           0.04405757999739   -2.01726388682984   -0.50814224064531
O           1.92285434179131    2.23905789717532    1.52647180908816
H           2.19936809409059    1.77205305558431    0.69482514182854
H           1.77130725702202    3.15709500915243    1.28874180165220
H           0.60292550992896    1.53981941610622    1.86045837528237
