    19
        -40.91739543
S           1.19718553024302    0.26225539236694    0.35640836263381
O           0.16164624041727    0.93460643874096    1.09537795348458
O           1.51913415028316   -1.09517455527567    0.96026748543002
O           0.90822477387276    0.14585261649624   -1.05056207991267
O           2.54814467325927    0.99680066244131    0.55809519535166
H           2.39387330039935    1.87828368102068    0.15449688005615
O          -2.40725480269440    0.59770440439636    0.35064186610240
H          -1.50796282441373    0.80251275517111    0.66837543512001
H          -2.90328736955744    0.31100548364917    1.11974901410057
O          -1.39505889995825   -1.27734427510135   -1.30603308050834
H          -0.58129667540669   -0.78365075397197   -1.50191964284244
H          -1.97339080632560   -0.62875339599273   -0.85518872800194
O           1.21405348275976    2.86979525541722   -0.69809674111653
H           0.96622149419235    2.20994103270621   -1.35753049401412
H           0.47431081644540    2.92758120777267   -0.08485017449082
O          -0.39643193402140   -2.67111664600984    0.60935138076193
H          -0.06279455327582   -3.49911368377804    0.25541122681355
H           0.72598445509248   -1.77290030956462    0.87521031018248
H          -0.88130106125952   -2.20828531050594   -0.14920415915851
