    19
        -40.91039598
S          -0.97414766906966   -1.10673539733852   -1.24968234865139
O           0.31526449175546   -1.69786005181377   -1.54533936625557
O          -1.39382502564150   -1.43382830573226    0.13012354419181
O          -1.05858313183993    0.30895934896929   -1.50284324069457
O          -2.03081205807120   -1.81185685510950   -2.18241820291291
H          -1.83869114757828   -2.73901017517926   -2.07598968178519
O           1.86147134868748    2.07715943068124    1.06331443251795
H           1.06392282899895    2.45439050460648    0.68049190161228
H           2.16185799596489    1.39147288313706    0.45907826577457
O          -0.94124632027639    1.98841385203631    0.47019059092088
H          -1.82292075601916    2.32660744257353    0.63589174081444
H          -0.99774750339988    1.45051448695527   -0.36097642503162
O           1.93311797473294   -0.64562992711166    0.17299502464827
H           2.60318654172127   -1.29439014628826    0.39707105227277
H           1.39035123855930   -1.04061894375191   -0.55937303627424
O          -0.06685922688035   -0.09438110194296    1.69203024132202
H           0.85052900208576   -0.23290145290150    1.27887670575101
H          -0.34982447617435    0.84152279680431    1.41103782935708
H          -0.70504411755538   -0.74182839859388    1.08552098242244
