    19
        -40.91739534
S           0.24137120716217   -1.20048206762783   -0.36126815526413
O          -0.35240560838878   -1.89181335711720    0.85555096905758
O          -0.76814067845537   -0.50866996739884   -1.11808463084773
O           1.34911898957061   -0.35828857451580    0.01310074116922
O           0.75611034600211   -2.42238394695515   -1.16577727137097
H           1.17646080863290   -2.01816079304184   -1.95544388888375
O           1.56689234962712   -0.48926271755833   -2.73803650285039
H           0.70973829790009   -0.07515713545595   -2.88086457084297
H           1.94778989723786   -0.05928799224873   -1.96228874027462
O          -1.26857492978589    2.08291704772776   -0.57034264442800
H          -1.13136950313524    1.16064259406347   -0.85701939524372
H          -2.20975487125532    2.17583262110303   -0.41126882827967
O           0.36810821110594    1.67037648110259    1.53625956250490
H          -0.18869444838640    2.07028750825689    0.83744064612650
H           0.96800442901814    1.07373804927521    1.05837923710822
O          -1.10426333429650   -0.18763541901283    2.53123990096543
H          -0.72106911496038   -1.21462465733313    1.56317507724713
H          -0.76595208252064   -0.42696461917348    3.39753880161519
H          -0.57336995506230    0.61893694584266    2.22770970249249
