    19
        -40.91271016
S          -0.01820825947054   -0.41984909083620    0.36073259367349
O          -0.00482725661212    0.41241201366898   -0.81439801425479
O          -0.78774480775019   -1.71872777608253    0.04189357287968
O           1.25965586263085   -0.72527638044720    0.92630718234518
O          -0.88784552886636    0.24547435153262    1.44413042480278
H          -1.56159631248777    0.83038567493810    0.94183074556884
O           2.60359933674253   -2.16150797422605   -0.90864519621855
H           2.92359708918256   -2.95683922212782   -0.47817746958387
H           2.27633984017143   -1.57773691190192   -0.19802389148510
O          -0.59804070501404    3.18738149167229    1.81557555342276
H          -0.24854013642326    2.32047922654518    2.04666163466804
H          -0.87729631331321    3.60568676863729    2.63272806295294
O          -2.13081829501514    1.87236993403007   -0.03694309249705
H          -1.49042839470012    1.61522077264533   -0.71985950222709
H          -1.75484686877256    2.65334818490233    0.40584177254798
O           0.29540539661170   -1.98699953143629   -2.23412060859445
H           1.21382957351665   -2.17345671945713   -1.93425728069537
H          -0.48032509779596   -1.98510086939137   -0.89055103569165
H           0.26809085740286   -1.03726392270275   -2.40072544150176
