    19
        -40.91396502
S           1.30237046344215    1.02815002867707   -0.21452215717695
O           1.02550339821453    0.33174044978347    1.06133847513134
O           2.24403016175876    0.34215201972589   -1.04264657310050
O           0.03707173493772    1.38140145138407   -0.84900373006157
O           1.96703665455172    2.40905434485370    0.20337182233567
H           2.88212627109132    2.34778561978002   -0.05609254188721
O          -2.49259756381705   -0.92932350394727    0.67606564380975
H          -2.21491760696734   -1.69446379437550    1.18528455190658
H          -2.07788599983733   -1.03182942650788   -0.24144356920738
O          -1.09197862195547   -1.03112968123842   -1.47650360957416
H          -0.73624254052374   -0.13003780286999   -1.54410229771075
H          -0.33900774583501   -1.58435929956337   -1.17679012410383
O           1.08626717724601   -2.03707992580214   -0.26582184803319
H           1.79479269983534   -1.78830852060475   -0.86931517842131
H           1.12674343437647   -1.36311812173739    0.43045391487076
O          -1.27014900273734    1.15942544791150    1.27483152150804
H          -1.05955101608750    1.51356906967594    0.35305135128598
H          -1.88150496904709    0.29172857654310    1.10232595392039
H          -0.30210693861118    0.78464306831437    1.44951838450919
