    19
        -40.92136400
S           0.74621655171097   -0.11670474090601   -1.16213790370089
O          -0.59288625091493    0.41920836676686   -1.06484919962056
O           1.75002546228095    0.85527391274324   -1.51781360486442
O           1.10028726338334   -0.86680883946334    0.05586632629118
O           0.71736527030357   -1.20278031948281   -2.32008801240094
H           1.60462485905427   -1.19725148080101   -2.66797273505122
O           0.79940529650553    2.50993289560124    0.29971019372966
H          -0.01320330752363    2.79240575225982   -0.12921047042214
H           1.29824309385812    2.01727688533730   -0.39094869954897
O          -1.95565049432432    0.02189088047674    1.13698629242139
H          -1.70527656364664    0.29104320695018    0.22351921856231
H          -1.90801547729764   -0.95860684947372    1.08973190354415
O          -1.10600041945949   -2.37130396332791    0.33036175589563
H          -0.21668810106685   -1.98020383586876    0.23921552435160
H          -1.37936389990282   -2.61706258952914   -0.55504963376790
O           0.31759430719253    0.60631475771231    1.92982557050872
H           0.76740950989331   -0.07983234460752    1.31220457228167
H           0.51601854691441    1.48628043010953    1.44556306205829
H          -0.74010565698117    0.39092788549237    1.74508583974488
