    19
        -40.92343663
S           0.74197478413841    1.37250972403953   -0.64113177344120
O           1.97488081310331    0.73699810325734   -0.17354205321521
O           0.26112410105279    0.77806103122155   -1.87008261366315
O          -0.27446910536505    1.40461712351108    0.39850877253632
O           1.10800870795648    2.87385664156682   -0.94723597311036
H           1.78256399919042    2.79293429691375   -1.61426890986083
O          -2.24483413895426   -0.35331655324214    0.12235928394869
H          -3.00085242896699   -0.03437791107321   -0.37239039943176
H          -1.61200334007201    0.39694664974020    0.17130767048342
O           1.34214439847081   -1.51824718105052    0.65176759639056
H           0.74758331452945   -1.23425026405091    1.44050967056995
H           1.76142588165886   -0.61498342520165    0.33202319024816
O          -0.28661621163209   -0.46668679479372    2.30101411336618
H          -0.23322810320067    0.38994583511227    1.82835636137751
H          -1.18022065085304   -0.78768295637614    2.13713322541119
O          -0.31959803721469   -1.68267736606658   -1.19804447146617
H           0.66776387332482   -1.74659369817194   -0.14552042715952
H          -1.16532614270369   -1.45785834752184   -0.75671715189717
H          -0.07032171448485   -0.84919489781927   -1.66404611108160
