    19
        -40.91237555
S           0.32173051674310   -0.09396064714765   -1.68615804085058
O          -1.09037282433866   -0.28510913725359   -1.54147301436241
O           0.66045188512602    1.39114302684541   -1.77756180185573
O           1.15035816186165   -0.76592122035496   -0.73605653730972
O           0.73800480712790   -0.58897481335567   -3.11573377955787
H           0.07564115586350   -0.26395298671377   -3.72182724203503
O           1.08926082889012    0.44532091194527    1.74075366674758
H           1.32975364157671   -0.11305773600397    0.98569939601649
H           0.31958495778147   -0.00164939703426    2.16391557613451
O          -1.16161731979374   -0.80083777038363    2.45957611131778
H          -1.17236722194686   -1.47900969901004    1.74877569351966
H          -1.95741072470405   -0.27941730271224    2.34340899189121
O          -1.00018829138811   -2.32320644829376    0.24603665470778
H          -0.04910408066067   -2.41442872682861    0.13368702184106
H          -1.26465579520508   -1.65608775784720   -0.40795181093687
O           0.21716264285023    2.45134558485715    0.42875883167519
H           0.81403657100676    3.19169029766492    0.56333990764905
H           0.43857956264308    1.87897420746861   -0.87181600584164
H           0.54115152607702    1.70713960422287    1.04462639122111
