    19
        -40.91039593
S          -0.23231208188294    1.80739198914411   -0.64444306690183
O          -1.13326352475962    1.21710577286825   -1.61352640198150
O          -0.78874629973234    1.69515049614055    0.72114081369551
O           1.12005726020584    1.31446649532083   -0.70289439224101
O          -0.17918762564237    3.35362723891766   -0.94427369106231
H          -1.09680637770780    3.59663738508271   -1.02629125926920
O           1.94781796914517   -0.41145567691350    1.04722090897988
H           1.75069583705921    0.24116982309902    0.32706829820088
H           2.51773816153024    0.03832817898554    1.67330409589471
O          -1.32889776410609   -1.26145596730942   -0.90953568668686
H          -2.21320945315686   -1.56852182345163   -1.11885053420530
H          -1.25231782557814   -0.34349171492688   -1.28151661561251
O           0.81680774822074   -2.86955442128132    0.10197983299570
H           0.28952330428242   -2.52014330696711   -0.62283577542311
H           1.55754504205152   -2.26788124579602    0.22141799702183
O          -0.57670616063340   -0.62749920776627    1.46606384554541
H           0.43525884344259   -0.72976184477261    1.44878901375230
H          -0.72588789134125    0.42925878530427    1.23053203177033
H          -0.90810916139677   -1.09337093567830    0.62665058552697
