    19
        -40.91739522
S          -0.41404562792557    0.15274418990102    1.19803497006486
O          -0.92946675595685    1.57465317794767    1.04446708310040
O          -1.16233044365847   -0.76892436934564    0.38498796751946
O           1.00701518755892    0.09129403689142    0.96695881958599
O          -0.71612267128663   -0.10448413979540    2.69733043356314
H          -0.37129067027070   -1.01088432874166    2.84979792286617
O           1.44047454224356    0.69319986936956   -1.64978051473887
H           1.57275665017439    0.47328524571788   -0.71255892381569
H           0.96612259392583   -0.07926300708772   -2.01935866289440
O           0.45030466135856   -2.37105367825704    2.09033215717427
H           1.16203911574099   -1.86057956234373    1.68456901807346
H          -0.13823814098773   -2.62834474512857    1.37336620827819
O          -0.30753261022756   -1.31053534036646   -2.11372049705828
H          -0.67024802680517   -1.20004029784398   -1.21490950862888
H          -1.03632212082887   -1.15309854294173   -2.71690257972685
O          -0.40692467106576    2.43575876791706   -1.24948628518494
H           0.33391404797489    1.80169226567960   -1.52086152799972
H          -0.77211446542078    1.95839966535926    0.08353296898010
H          -0.00799058451419    3.30618078298739   -1.17579904915199
