    19
        -40.92343662
S           0.56523584437609    0.01864984657265    1.58925223449807
O          -0.74089175659591    0.60870260644349    1.88600195787381
O           0.47940424268678   -1.41309688299162    1.39548264571444
O           1.22097654996546    0.69338335637505    0.48019636829589
O           1.46448552205056    0.27703389118571    2.85669295994689
H           0.98113883796225   -0.16202589128995    3.54968664030745
O          -2.04838915856567    0.53108297557978   -0.22456743517329
H          -1.47249685737526    1.16908092435732   -0.78801558084197
H          -1.63505568479643    0.61841877098236    0.73175649161995
O           1.20907135042205   -0.61943807710179   -1.82697817932699
H           1.96474781603162   -1.19161888374127   -1.96689997490453
H           1.35395434106659   -0.17977693042232   -0.96004024530186
O          -0.24589693012050    1.89027363361959   -1.40029819847298
H           0.37966498344394    1.72067792380183   -0.66538414893716
H           0.10794394601860    1.39741760159523   -2.14885720789821
O          -1.00907670374490   -1.67410518782945   -0.73952843847306
H          -0.53041307656085   -1.78914382643577    0.11589163902509
H          -1.74545444087078   -0.45406995480329   -0.51061672168827
H          -0.29894883538508   -1.44144590589698   -1.37377481626238
