    19
        -40.92217267
S          -0.82714658681055    0.94879270604979    0.56797575118321
O          -0.81616028247425    1.44113229383470    1.91555956394644
O           0.36307689950422    1.33870991890380   -0.19892183384234
O          -1.10014469783211   -0.46934583166016    0.41552843815587
O          -2.04603468177799    1.66922529409777   -0.17679363280799
H          -2.20141806587445    2.46288007881730    0.32666706078439
O           1.13300226767320   -1.95269233698507    0.52395923908357
H           0.17166104316129   -1.83086529395321    0.61587396004205
H           1.49879686886631   -1.34202962661975    1.20144758658381
O           1.55013222110301    0.17118419585872    2.09160213939458
H           2.11413248763051    0.85051088008010    1.71430114687363
H           0.68473424897267    0.59690874819443    2.22427364313713
O          -1.24877518811807   -0.81314700560791   -2.17137831143414
H          -1.40079945177158   -0.76922421699181   -1.19928628690965
H          -1.70217733721410   -0.05509369884535   -2.54523459585069
O           1.22006138503422   -0.55235624860085   -1.54274352672324
H           0.34363007718856   -0.77349970099853   -2.00414998165026
H           0.96050957564399    0.32912997591898   -1.02131497064696
H           1.30291920710372   -1.25022014154508   -0.73736537929066
