    19
        -40.92071440
S          -1.04461888231484    0.27878628192221    1.01350288842664
O          -1.27714591886530   -0.37789430058917   -0.28827682593147
O          -1.15920138771114   -0.65547557883780    2.10969372719638
O           0.19790531778975    1.01556535128460    0.99475095580464
O          -2.21726934068337    1.32460948986761    1.17931943651774
H          -2.91477754510823    0.82295480385483    1.59170410701817
O           0.96415427769988   -1.44623602490835   -0.70032912617348
H          -0.02061730574285   -1.16585523299265   -0.62866712014181
H           1.22714732451071   -1.59982471320627    0.28389892150000
O           1.30580289532887   -1.48499012047567    1.81646725907110
H           0.36954075241974   -1.30919850914348    2.07302126873035
H           1.78475648248051   -0.68712299745008    2.05933761874667
O          -0.63113353797567    1.14044649459043   -2.40343565347619
H          -1.05682171010188    0.79067008380111   -3.18754794580370
H          -1.01381376622324    0.66298132590561   -1.64065704046683
O           1.70595608504108    0.87156759014427   -1.15249342798664
H           1.29989717319058    1.16864367514451   -0.30570437906933
H           1.42954323600512   -0.49300623541310   -0.98524476920635
H           1.05069586022935    1.14337861649721   -1.82933988477742
