    19
        -40.92120154
S           0.80751089138107    0.46901362851277    0.24260675891935
O           0.18617290855619   -0.79124405005144    0.90468931115312
O          -0.00940331804577    0.79631171172273   -0.90938068213277
O           0.94387823488469    1.50748615244896    1.20638368834406
O           2.17824361636292   -0.00821437637968   -0.22254663516072
H           2.09717380733050   -0.77069406634409   -0.90233092170675
O          -0.76047281317696   -1.62925519618174   -1.73936116399476
H          -0.65593397431226   -0.67531759196202   -1.55783099483345
H          -1.04592548677481   -2.02446362727921   -0.91168911566003
O          -1.91029522315089    1.97474623579081    0.60978460871711
H          -1.33829955074070    1.60540825924725   -0.08487684510030
H          -1.57506766417514    2.85865144973679    0.77700533373270
O           1.84722652847280   -1.82976826732052   -1.96206728010588
H           0.85719452442449   -1.91269167284722   -1.95836356734628
H           2.08982058650358   -1.49017424021381   -2.82686893807315
O          -1.18219353374814    0.41891789348657    2.65648166575338
H          -1.66546085901815    0.98027852209678    2.00609993947530
H          -0.39003539262132   -0.45639948715440    1.67734189851014
H          -0.47413329205228    0.97740874267834    2.99492294949760
