    19
        -40.92071436
S          -0.55766651124028   -0.56483208797053    1.25098432183491
O          -0.67126661050646    0.84598118298615    0.83063465453706
O          -1.82401396914967   -1.25354425341186    1.15293515855749
O           0.52374275449146   -1.21707258921622    0.54942799894902
O          -0.17691263486260   -0.52404656357404    2.78386173694326
H          -1.01988821559524   -0.49526239480088    3.22744906390350
O          -0.57730923287561    0.61636482188231   -1.67367744819401
H          -0.73277785496595    0.86270247574075   -0.68933750379794
H           0.50719348200503    0.44585562805866   -1.67479077905637
O           1.82138525502088    0.13893932446350   -1.29056721822109
H           2.08086125527009    0.92286216665588   -0.76215507212975
H           1.58097422302714   -0.52990452984430   -0.60870467839933
O           1.69031558384332    2.08252021235346    0.52838287993236
H           0.84231494546908    1.67663712985966    0.79735988275829
H           1.55814621340451    3.03148084616006    0.54620257370955
O          -1.49593973931918   -1.73589765055951   -1.39904447424224
H          -1.00521229503536   -0.31843320776958   -1.74227192932538
H          -0.74717677919939   -2.33841503611913   -1.36285321910687
H          -1.79676988981776   -1.64593545493464   -0.46383594868346
