    19
        -40.91893424
S          -0.46710833563210   -1.58568728144012   -0.52902243201659
O          -0.43136586405405   -1.27960665825907    0.90912955326148
O          -1.79107694866489   -1.44685783828403   -1.08066132635871
O           0.57402332778630   -0.86977097253392   -1.23984852709676
O          -0.09218705762801   -3.12413195592542   -0.64316154331414
H          -0.93294615464131   -3.55799684347429   -0.53358651311699
O          -0.91725719681662    2.30578064550997    0.99560065610574
H          -1.09991336110845    1.95297783339161    0.08326980669627
H          -1.74335548558112    2.23626805851528    1.47814520621227
O          -1.33892094820124    1.14247743435499   -1.31648167641832
H          -0.51370127436898    1.02969411845107   -1.79774368379476
H          -1.70290646932664    0.23625807007145   -1.25038312371358
O           0.83285890064371    0.65022368878392    1.76359662678890
H           0.16854510911204    1.40929768054257    1.52686878030582
H           0.30061217948710   -0.22968226386016    1.46699792053476
O           2.48554426572334    0.50265159070919   -0.15691132307296
H           1.81839999412233   -0.01018684690408   -0.68265716396145
H           1.59533511764007    0.70124740556406    1.08021732522191
H           3.25542019147425   -0.06295587522483   -0.07336855227444
