    19
        -40.91469040
S           1.33770979135902   -0.34191813437508    0.02059079374853
O           0.68714775745058   -0.08500622957544    1.28396750850124
O           0.23716303162307   -0.47668413722525   -1.06623225903911
O           2.30227276876475    0.61128242514386   -0.40250433071078
O           1.94953895693911   -1.75830713209185    0.06269668854891
H           1.29825620355987   -2.32338079187485    0.55596754923179
O          -2.45308860745723    0.08485846639388   -0.35009928883168
H          -1.64038628939636   -0.39003294791425   -0.56970655639155
H          -2.93985125084783    0.19212194636438   -1.16967449938707
O           0.05083930140115   -2.63631715551817    1.59720598491705
H           0.27212050623841   -3.01893149313578    2.44997055520641
H          -0.02482843925717   -1.67320467477610    1.72881301294493
O          -0.80882830192960    2.11007472299191    0.52676904160964
H          -0.22938154444742    1.52502976719396    1.03659652442623
H          -1.61388307594074    1.58393371936486    0.37365697651434
O           0.29155541434486    1.89536670396652   -1.83820380984147
H          -0.15944163697179    2.21180033912659   -1.00707881806436
H           1.23573379419779    2.03169118455426   -1.69491789396686
H           0.20735162039762    0.45762341131221   -1.53781719937769
