    19
        -40.92217276
S           0.71068484678616    1.11820990552292    0.39061463360069
O           0.26566464891149    2.48194442603401    0.41947451666249
O          -0.01272177470558    0.19971636537746    1.25212462380415
O           0.82892145939471    0.57770620143664   -0.96960924035103
O           2.20374756723271    1.10828147609534    0.96476379668808
H           2.51755742587575    1.99841843939091    0.83562180723902
O           1.29540252293591   -2.05196155744140    1.02423499512967
H           2.23215105274794   -1.84845538307440    0.99175760644565
H           0.84795934557216   -1.22890882157005    1.32826883964119
O          -1.82435784854522    1.56945845449743   -1.00807459111422
H          -1.43053171103806    1.59207380342074   -1.88346785193179
H          -1.19703669202395    2.03817758082470   -0.42954414906727
O          -2.14423695402164   -0.87243379100707    0.02725809075377
H          -1.64649478329982   -0.60090240278245    0.81868891690728
H          -2.30058759056391   -0.02100969361617   -0.43809365505230
O          -0.08548221657926   -1.71665375294480   -1.10618319303308
H           0.33207110420612   -0.75000948563817   -1.18523105731186
H           0.45419251725730   -2.10202519138613   -0.33798861901312
H          -1.04690292014144   -1.49162656309237   -0.69461544987861
