    19
        -40.91966051
S           1.49400455115113   -0.53809300668387    0.64061091858643
O           1.92497599024369   -0.04341156403247   -0.65775925177906
O           1.23026237890262    0.57819697893433    1.56167314242429
O           0.37342504542729   -1.44210062830766    0.56214054397722
O           2.70423380931753   -1.33203247165881    1.25914950160881
H           3.40047236412765   -0.68250103740834    1.27465050154433
O          -1.38748763090591   -1.16065480004532   -1.54430607728398
H          -1.06546593339634   -0.34555248428786   -1.94614929424411
H          -0.64229138454994   -1.51202688317837   -1.03010148513618
O          -2.19902230778018   -0.63523191149316    0.91355377606570
H          -2.24376102176563   -0.85513501359136   -0.04877051482857
H          -1.45723109118500   -1.18173083087971    1.22200029110394
O          -0.01737204578309    1.33650784863246   -1.59655809624245
H           0.77836709246529    0.79730769904251   -1.31591774486385
H           0.32460871975143    2.08778602589782   -2.08485790247384
O          -0.92805588398005    1.50892951508516    0.81099956495835
H          -1.57592420972554    0.65645693486352    0.90931709730586
H          -0.01072980377635    1.18652871903649    1.24207209557932
H          -0.70300863853351    1.57675690011311   -0.17174707630996
