    19
        -40.91148437
S          -1.25672148740009   -0.99245254568526   -0.76745056216414
O          -1.57908958493102   -0.48814778810371    0.55387125143491
O          -0.13640272432183   -0.20611166865667   -1.34750038518599
O          -0.98879800632219   -2.39919466804682   -0.82209586986186
O          -2.50963950534261   -0.65623692760367   -1.67674827891729
H          -2.99494247158318   -0.01318260888369   -1.16522031878045
O          -0.18542198226530    2.35156417016147   -0.72722386443415
H           0.07479895574878    2.82277287581414   -1.52099094147878
H          -0.27861608127520    1.40754795540771   -0.98891240305530
O           1.50784067544547    1.79681251898667    1.24810205073228
H           0.79602314130533    2.11170824131179    0.64046418544593
H           2.24038848934141    2.41041009846769    1.16665841804811
O           1.71558406395894   -0.55052044059229    0.27784281386288
H           1.71052788212422    0.36051280738400    0.75528029778951
H           1.02554092594586   -0.43217386444358   -0.50546521904338
O           0.21562318651699   -2.09770236962018    1.55644532457336
H          -0.04212923524214   -2.71938344862821    0.85482652174122
H           1.22257096704442   -1.23973594141386    0.90841209821593
H          -0.53713719875298   -1.46648638585947    1.55970488107997
