    19
        -40.92158948
S          -0.04486908669477    0.93958020215913   -1.13793550923660
O          -1.07728284314969    0.78595566166104   -2.12636213135347
O          -0.57805374424129    1.35064486638099    0.16784772705251
O           0.84522557458544   -0.20206200375421   -0.99122568264377
O           0.88868305657787    2.12530483962839   -1.62156937437071
H           0.28913483303158    2.74562814757511   -2.02500123794683
O          -2.53999552564433   -0.67345504370714   -0.44665330127267
H          -2.12373041081463   -0.20512909270474   -1.19648289502148
H          -2.84356863255557    0.01728369322171    0.14704663643124
O          -0.45598530765126   -1.99456119066900    0.49685961786529
H           0.10966704939696   -1.63650756707475   -0.21536940741548
H          -1.36650085646768   -1.74082001117939    0.21407033541130
O           2.55299392077873   -0.05019386418507    0.98769699561510
H           2.07555122090848   -0.02287905957003    0.12518170222325
H           3.13607581818430   -0.81129435829660    0.95533332163551
O           0.20518765433005   -0.12146716451598    1.99928290541853
H           1.20577522416447   -0.08367735731171    1.83055452609269
H          -0.16572438034953    0.59918720530886    1.32353804813622
H          -0.11258356442353   -1.02153792292074    1.51318772343587
