    19
        -40.91955039
S           0.60361932815054   -0.99195023589079   -0.13136653956715
O           1.68105351692346   -0.25873492098225    0.44493610682071
O          -0.58756259990311   -1.09057791249912    0.68026398055649
O           0.21242182895864   -0.41004806500831   -1.50241166671386
O           1.07318486463013   -2.41000898955368   -0.51350576592520
H           0.25057352115861   -2.84550391417891   -0.85206165496379
O           0.97056514965318    2.31484814288856    1.01459741108762
H           0.19600753125948    2.08718570957338    1.56665258569122
H           1.49423322306913    1.49870590852758    0.97712474943212
O          -1.04619682248579    1.04652356464275    2.29470439792218
H          -0.98250774522288    0.25613061172625    1.72956795725830
H          -0.94702511906454    0.74083946415776    3.19806981302857
O          -1.39765654324020   -2.84204079437927   -1.18660034873728
H          -1.56753011112425   -2.28986227054113   -1.95484804413366
H          -1.53812386025951   -2.28070555438046   -0.40665313518687
O           0.15441654000438    2.09298761149645   -1.41969397611613
H           0.42107990337574    2.29945825312937   -0.46713760772481
H           0.85051206853361    2.45047029635681   -1.97616970048921
H           0.15893533556155    0.63228309487981   -1.49546855226072
