    19
        -40.92071370
S          -1.44807716947216   -0.30151782719077   -0.10247078642264
O          -1.98839112503093   -0.47474456940643   -1.43110128526797
O          -0.39142089619380   -1.29127074838161    0.18800417701711
O          -0.97926803571593    1.03656589090534    0.17400584887456
O          -2.61721738194032   -0.61624690666884    0.91263667565709
H          -3.13449603865051   -1.28112371866903    0.46695224660254
O           1.58359462555152   -0.24538006676653   -0.96941510379884
H           1.72327299909356    0.50320283801998   -0.17760211600786
H           0.86310419735599   -0.84145156068832   -0.54598429878356
O           1.00044163436310   -0.77619964440718    2.42256763121130
H           1.45796288395981   -1.57066851870644    2.70159698917391
H           0.38746568567612   -1.04239518607110    1.70859723437140
O           1.52128536226702    1.35822422715352    0.91501632639943
H           0.55853245231559    1.50133760949427    0.76380104137623
H           1.54518088935917    0.74287705008451    1.67804592139677
O          -0.05707782034936    0.91279301171607   -2.52522783118938
H           1.06613272146500    0.23682900835762   -1.71831027080351
H          -0.84808492165832    0.36701975793165   -2.30274159748405
H          -0.24294006231215    1.78214936329962   -2.15837084250947
