    19
        -40.91103818
S           1.28880358373153    0.81840381358876    0.08943639900488
O           1.09632150870062    1.87700617585713   -0.88120288859489
O           0.22546949336584    0.86633397278226    1.11563263002167
O           1.39727451590255   -0.49427029780095   -0.49447933947947
O           2.62672356277820    1.10841625496825    0.85736158630044
H           2.49966171417245    1.97481373662821    1.23263571255282
O          -1.10883198769478    1.23418818284486   -2.05356261857559
H          -1.54296001255475    2.04868168953240   -2.31773357767570
H          -0.20747513553238    1.49657728670276   -1.71887994026151
O           0.25247127869120   -1.56627977344169    2.52571721631845
H           0.03416926079239   -2.13711939991567    1.78504581470366
H           0.33120105497675   -0.67199888836686    2.17068564744301
O          -0.55593336357365   -2.17276763310250   -0.36667301627115
H          -0.61930148462364   -2.64983388136219   -1.19651434975418
H           0.28853199907821   -1.64884651114462   -0.40686344457213
O          -1.81167487484710   -0.00565319736708    0.02920874449362
H          -1.02935541160940    0.40758579761764    0.61973010953419
H          -1.68107747913161    0.48520724270518   -0.87153470588137
H          -1.48401820250899   -0.97044457074489   -0.11800995932542
