    19
        -40.91039591
S           1.16108973797672   -0.96556693690858   -1.20658149307973
O           1.13203656294024   -1.65012006442316    0.10398561790988
O          -0.04840758460696   -1.24256214961906   -1.95474832152148
O           1.47092748894733    0.43384006147393   -1.06165869894418
O           2.35417164829781   -1.62889467773998   -1.99408222157763
H           2.03872700844688   -2.50915174053753   -2.17695838234616
O           0.98230171607591    1.64371491656833    1.17984051007777
H           1.81192583480660    1.77838236913687    1.64099260681514
H           1.21351924802091    1.29560346082912    0.28055153112785
O          -1.84543897152329    2.09426461646679    1.05868192121263
H          -0.93507537798244    2.39805085172487    0.99588954948785
H          -2.03608806788495    1.61886848805719    0.24437269638796
O          -1.96190140939912   -0.31781374914121   -0.48495518003174
H          -2.73500969543570   -0.87216512466956   -0.60762617150071
H          -1.28020036895752   -0.63478496306954   -1.13440562453597
O          -0.42818543507030   -0.46612792699695    1.57320211738747
H          -1.19959615520013   -0.34926206536576    0.92288509794459
H           0.28060772524940   -1.06986271551903    1.00092729129771
H           0.02459606529851    0.44358735973323    1.61968715388880
