    19
        -40.90893962
S           0.00786152844613    0.93797512589125   -1.09635211959217
O           0.82228927431260    2.04104697488562   -0.62039944610774
O           0.77884175425143   -0.32341289213318   -1.03511175319821
O          -1.25899126201598    0.81158347496117   -0.43061264330174
O          -0.26317611343611    1.19742449741151   -2.62419751576350
H           0.58341902191274    1.46755122123329   -2.96796845144428
O           1.19726786653367    1.50399200569889    1.87657986969444
H           1.01701783139924    1.82619693823933    0.95121853144975
H           2.07287667896028    1.82476443067270    2.10388946613123
O          -1.73487074685281   -0.88074924977220    1.49348283163262
H          -2.10971740187623   -0.32496832440542    2.18086073641071
H          -1.76357905574583   -0.34546988240110    0.66363929220893
O          -0.95552017844057   -2.32889115325760   -1.78025511409700
H          -0.37646808891477   -3.03956752662337   -2.06109431835708
H          -0.38410932146687   -1.57231442285977   -1.58720703270407
O           0.77325599914107   -0.93945469411703    1.36732019944837
H          -0.25741525794540   -1.04961725544155    1.51992617559128
H           0.84552576782440   -0.80533508435385    0.32513775394876
H           1.00549168393463   -0.00075420380922    1.72114354778635
