    19
        -40.92246923
S          -0.44503674084265    0.69817773847021    0.67730711964812
O          -1.00391966592494    0.19732252307243   -0.65187911246198
O          -0.07350696639152   -0.40126937641832    1.51574177095416
O           0.60631090283884    1.65325484771706    0.41526494353387
O          -1.65645915113409    1.42559712923590    1.30037538965382
H          -1.80727226946497    2.19660169977544    0.69793512177105
O          -0.00411581849211   -2.96117237198788    0.69759053085547
H          -0.83192891925382   -3.39090287319000    0.91900322810960
H          -0.00629098567226   -2.10092821287249    1.15893974679184
O           2.40050969190091   -0.27188880277696   -0.18912879817174
H           1.93497167265387    0.55932476708731    0.00649475438135
H           2.51032932320008   -0.71718206557014    0.65478978051490
O          -1.37907330098187    3.12785264103969   -0.64550883397628
H          -1.59267533509023    2.63707420541003   -1.44409800756151
H          -0.44410442796463    2.94892225431462   -0.45363549189034
O           0.49602728900231   -1.56416730565088   -1.49883755654297
H          -0.38178396936397   -0.59106463782510   -1.10083827092359
H           1.35317072461933   -1.16286992873314   -1.21482500176983
H           0.32484795621238   -2.28268223097216   -0.84469131289756
