    19
        -40.91117814
S          -0.59494983676879   -0.37528910335889   -1.64892119863482
O           0.38116979409711    0.66679355954016   -1.45897151821511
O          -0.39608182666153   -1.44709700749263   -0.57049324185794
O          -1.95758341702894    0.00339564098018   -1.73486969722180
O          -0.19386414359629   -1.14500166372093   -2.95905771166669
H           0.75966162064293   -1.18210242667519   -3.02016030564451
O           2.21311981559936   -0.49989474091843    0.15878502113655
H           1.68824708187105    0.02968798325452   -0.46647592718041
H           1.70621592447330   -1.30415769141052    0.30381631479060
O          -0.78457829364530    1.45469602463262    0.96617406017519
H          -0.01452659075972    1.36765281123280    1.57154470778330
H          -0.41861206298613    1.47272441364457    0.07297252693853
O           1.53554596393042    1.05275999576060    2.27351432695347
H           2.14307281070936    1.78721702136633    2.37261745037526
H           1.92330038013661    0.45770218567919    1.59823024039818
O          -2.19367174035099   -0.71610565336786    0.95017399690364
H          -1.16931914663655   -1.26780326234955    0.15245140856838
H          -1.75055254233651    0.16418269588581    1.14046879358402
H          -2.87659379069094   -0.51936078267721    0.29820076281128
