    19
        -40.90951441
S          -1.62511158355632   -0.68678557132625    0.01268045236430
O          -2.12464554322769   -1.02034816830565   -1.28208095747259
O          -0.43454461774797   -1.35488406489115    0.44437297266471
O          -1.48693030871901    0.82762062722658    0.14185571057388
O          -2.72351869525280   -1.01282446436015    1.08891326193375
H          -3.56920657684424   -0.73237389285655    0.74389102089977
O           2.50317029304896    1.15961578976263    0.55860526936799
H           2.00746017239990    0.75664597234295    1.29823930904424
H           3.43170594707355    1.11747083763364    0.79169909416836
O           1.13692791653080   -0.33107351155141    2.38983766866284
H           0.49527173954961   -0.68678826126830    1.74917618270316
H           1.51954995490675   -1.09163692891143    2.83159932874084
O           1.29350668741042   -0.20126297106238   -1.43196582786390
H           1.81940896079598    0.35987152616293   -0.82280270330689
H           0.82891749740816   -0.82932661383326   -0.86342521472004
O          -0.73695052292102    1.22572977754798   -2.18743103747357
H          -1.17832473507424    1.16331459841770   -0.81100165260352
H           0.15015055578857    0.77812779265427   -2.06308289282303
H          -1.30683716156333    0.55890753660763   -2.58907998485709
