    19
        -40.92217282
S           0.69036744871094    0.45469877122397   -1.10619125139335
O           0.82993526177595   -0.83926052671733   -0.46177298420053
O           0.27754668227246    0.42651781843889   -2.47997823935457
O          -0.11107819027818    1.36729643316340   -0.28065081584457
O           2.16624149864165    1.07140251044523   -1.08078134688081
H           2.23297921756172    1.57022199685687   -1.88964430860428
O          -1.46457513997674   -1.67251429192450    0.64878563364701
H          -0.58465873841167   -1.82565603774026    0.26131663564257
H          -1.96638103684539   -1.27122702220118   -0.09469921928615
O           1.80818383010369   -0.27275089343138    1.89529898313225
H           1.62418253506878   -0.61309391886236    0.98960902415292
H           2.44774746887523    0.43403226415856    1.78855493407619
O          -2.13941639687638   -0.20428848540146   -1.47963559564653
H          -1.32722390139716   -0.07762595687590   -2.00136682030449
H          -2.45580271865954    0.68009585257622   -1.28051279022056
O          -0.67786853982350    0.34204475890539    1.89774506693288
H          -0.50888424339836    0.89130821583206    1.01155506753715
H          -1.11182036563874   -0.55276478421316    1.50449298104847
H           0.27052530831949    0.09156329575458    2.15787504556273
