    19
        -40.91893434
S           1.73593741589089   -0.05989961210980    0.01799234921837
O           0.98244815170130   -0.87451095300920    0.95088204783241
O           2.12081013487924   -0.72349073992023   -1.20177291456610
O           1.05361621045138    1.21778999223001   -0.23837812714479
O           3.08295004618502    0.32327840839483    0.76545785628598
H           3.68259173687149    0.50253730362847    0.04755893092256
O          -2.14084099193114    0.18889263868024   -1.59184132969000
H          -1.97504121109651    0.60805957830992   -2.43854930686634
H          -1.52019649211745   -0.58708664953442   -1.54148178352597
O          -0.32889167141058   -1.69281528245691   -1.35801927699038
H           0.58974868966214   -1.38497092190163   -1.49733479436036
H          -0.32273109758278   -2.05562047633338   -0.46718079308091
O          -1.30651968581865    1.54169903183767    0.37508496675692
H          -0.26725231244603    1.48518088302881    0.12383719464283
H          -1.75863549001926    1.04174189762946   -0.41152187932507
O          -1.11061945587730   -0.12431784456696    2.27991333681266
H          -1.38050510768162    0.93028330512713    1.19458102426665
H          -0.30879137349289   -0.51602665746982    1.84621848653424
H          -0.82807745619044    0.17927609845136    3.14455401228293
