    19
        -40.92174076
S           0.05979969750851    0.42716578168437    0.78597737215139
O          -1.20280823217053   -0.35423824750890    0.47255424447260
O           1.21525192897536   -0.41345125831561    0.67100871707650
O           0.11083763927220    1.63315985908179   -0.01324220857518
O          -0.12258955661340    0.82457624050462    2.26684707594950
H          -0.74279211226716    1.59897007278054    2.26391564332969
O          -1.47260586507012    2.95369423961727    1.64747999063659
H          -1.11255720648051    3.79992866729204    1.92483326371573
H          -1.04519745085165    2.72720359729453    0.80076852976004
O           1.08849577714340   -2.91877639337030   -0.30414711313579
H           1.29303681677304   -2.05610839687446    0.10401333526795
H           0.93002478150972   -3.53021308482628    0.41687475449781
O           0.95312280809678    0.26504543286526   -2.19153215359802
H           1.78561487971125   -0.08339516437292   -1.86180531532008
H           0.67655667564666    0.94093787240437   -1.55094326844104
O          -0.82627879992343   -1.62046906957910   -1.61522452479510
H          -1.12860778924650   -0.92368056879387   -0.45124334639245
H          -0.25772278920075   -0.96467100807482   -2.08366379879065
H          -0.20158119281636   -2.30567856178068   -1.28247118779594
