    19
        -40.91641694
S           1.08034285106731   -0.00194168375868   -0.42875763960236
O           0.59550322819551    1.42869075211236   -0.56193863017830
O           1.82930135137707   -0.17687123337793    0.77819986312246
O          -0.03480819274316   -0.91339318710583   -0.57426254274691
O           2.01747217405559   -0.16443373586583   -1.66574028064754
H           2.37759816118434   -1.07381653405492   -1.60266541238999
O          -2.54266336277632    1.61677465699192    1.08651319288370
H          -1.97548320286203    0.96111116534764    1.54239795512191
H          -2.30080899195320    2.47647410036689    1.43536401876852
O           2.31548346009547   -2.55425565481671   -0.60406125996209
H           1.36982993518537   -2.73487657677455   -0.60258577309936
H           2.51090518407644   -2.12805456583044    0.23901634025005
O          -0.72972038464891   -0.19479373359177    1.96611980389565
H           0.19402077140463    0.01341066008555    2.14232091171875
H          -0.71048078104351   -0.72380677672469    1.15625402237334
O          -1.73790262211445    1.16007700358331   -1.37711685829233
H          -1.68414903328981    0.19641215090865   -1.40913186598788
H          -2.20363012796364    1.38124951613624   -0.52665778532308
H          -0.37081037719372    1.43204367638378   -0.99326806987172
