    19
        -40.92120165
S           0.16204870552093   -0.81366526229791   -0.49214484453850
O           0.02986270052965   -0.61973359504117    1.04339970034074
O          -0.09624480424339    0.47135957360400   -1.11129928863852
O           1.42336495693716   -1.39583316899374   -0.80191241590881
O          -0.96719234212108   -1.77992802665688   -0.83065539601342
H          -1.88140481523492   -1.38445630451791   -0.59068916169764
O          -1.92666946731165    1.50043753282813    0.54061463936709
H          -1.51641893583891    1.33271371413940    1.39286834385031
H          -1.23353799107496    1.33331169668529   -0.12679929513018
O           2.38865539018060    1.38205345584212   -0.55747806524122
H           1.47219023962881    1.22651685502318   -0.84374850494536
H           2.94147443998243    1.01603664006249   -1.25187925201401
O          -3.17799300932886   -0.65782864033290   -0.27617333871573
H          -2.85894091487013    0.19930090387296    0.11170179106886
H          -3.63487316414966   -0.43597788946462   -1.09109900262895
O           2.49086145674894   -0.28326637171428    1.52947776904566
H           2.81230671351605   -1.05892869313993    1.05736746733959
H           2.59507350509641    0.46572426295741    0.89712228491734
H           0.97743735602112   -0.49783670284768    1.40132656955390
