    19
        -40.92003352
S           0.66369192663898    0.57242852156056   -0.08925124106517
O           0.73086668024142   -0.67370370338430   -0.80992900057119
O          -0.55380961788224    0.71820334058638    0.67283592779141
O           1.87117824791639    0.72544158777051    0.83865402174652
O           0.84824942699853    1.75507926747225   -1.04238496205872
H           0.08705422466054    1.79561527457949   -1.72269661867445
O           0.78368679056421   -2.44093668059248    1.20294500787001
H           1.53840655642092   -3.02470902584007    1.10308067480920
H           0.73756606206620   -1.90699446463808    0.38636906274012
O          -1.19398666556457    1.75031896419326   -2.55883332628396
H          -1.63324203708869    0.92646595011492   -2.22041402940109
H          -1.77296957657988    2.48267574771960   -2.33344117301229
O          -2.04805431008577   -0.38206499636860   -1.27791269104676
H          -1.75343324245842   -0.03521233788554   -0.41766696797791
H          -1.41052128221082   -1.06843968624447   -1.49902803846146
O           0.80631407101781   -0.34806888282002    2.86095455412325
H           0.77427430432301   -1.24892334022200    2.46699644144864
H           1.58337750295283    0.36101314832016    1.75428720627721
H          -0.05864907192646    0.04181132567667    2.68543516174761
