    19
        -40.91103764
S          -0.10135285538830    1.47159626423766    0.40381199955542
O           1.10131045495351    2.06597654366681   -0.14356296046982
O          -0.91102612038214    0.86919191592596   -0.67719219631503
O           0.14631719776928    0.52806511827429    1.46391500520960
O          -0.98482908277745    2.62719293982454    0.99349378205002
H          -1.14948091385591    3.20081136013273    0.25084447540086
O           2.42926449221723    0.04524375170431   -1.03956153916298
H           2.02563163549412    0.86154668295100   -0.63448810660546
H           2.93388447205463    0.34568030279969   -1.79896397005375
O          -0.05173428466595   -2.01075291964047    1.05704833461265
H          -0.02635989055080   -1.06248340034395    1.35569737021939
H           0.64616081063883   -2.46425217701797    1.53395677903680
O          -2.82110460213430   -0.82504912537160    0.50042026997114
H          -2.20418938201410   -1.44781928311180    0.89253025985122
H          -2.28898029236246   -0.13304945942378    0.08817973459399
O           0.25612531875447   -1.20508577501874   -1.32810040239505
H          -0.34075993722875   -0.33763597628801   -1.17287949010599
H           1.21277941426540   -0.81342759142528   -1.30119091244667
H           0.12834352527458   -1.71574917197064   -0.44395843303951
