    19
        -40.91469035
S           0.78886779301181    1.03217185106882   -0.46049100780685
O           1.11829414982994   -0.28053261596570    0.30035759369252
O          -0.54784147321115    0.91461701248974   -0.99390701343242
O           1.03853819435914    2.14327807446966    0.38870526459549
O           1.78998699971913    1.00503045866295   -1.63493655890453
H           1.43115049117236    0.34590302440822   -2.28589305871352
O          -1.85922994014116    0.29271560539863    1.35714987001985
H          -1.85172826603221   -0.66445802534112    1.17787287437423
H          -1.64473351417611    0.70119789412408    0.50567662572028
O          -0.94443871036166   -2.20213185947192    0.64120828740285
H          -0.64568950976865   -2.81141238101120    1.31910073679973
H          -0.15872677122312   -1.74504133427247    0.31247763854135
O           0.27298060948320   -0.57949332397538   -3.02009125416168
H          -0.02717262791171   -0.30002663766823   -3.88861394103187
H          -0.36221920633590   -0.22317196964909   -2.37183633082970
O           0.45045091611327    0.51592941628374    2.56873603406264
H           0.95097104422500   -0.05745751457137    1.30943140818160
H           0.71816184924541    1.43403274384296    2.44182720067433
H          -0.51762202796738    0.47884955118225    2.33322563080482
