    19
        -40.92343666
S           1.40724618829129    0.21319110230541    0.90539058087819
O           1.60790126390878   -1.15912668298190    0.49157741058686
O           1.76259361699364    1.16003454253169   -0.15281599378186
O           0.06546621812248    0.45247467632020    1.41293185771193
O           2.39008095452966    0.50072351078064    2.10260803639932
H           3.24536123371060    0.35507615141010    1.71044293672122
O          -1.78329252297781   -1.27579081281290    0.61019721156437
H          -1.89774579779932   -2.03565376983041    1.18253771062768
H          -1.09880542642169   -0.71265576893798    1.03453690373480
O          -1.77924793126664    1.54931480780008   -0.17308689616754
H          -1.14528075472750    1.38946548136913    0.55672619868702
H          -2.42298954730181    0.83543489429473   -0.10638289032629
O          -0.09406105723455   -1.48538793874588   -1.46802506489685
H           0.66554888473457   -1.53257952949651   -0.83969806422107
H          -0.87984940645423   -1.57846199532966   -0.88970018401421
O           0.00284277507614    0.96777216028879   -1.89491887155213
H           0.81766361547776    1.14909793168054   -1.26489189426028
H          -0.06567957184300   -0.09895320021259   -1.87103132206640
H          -0.79775270481721    1.30602443956717   -1.34639766562499
