    19
        -40.92123226
S          -0.03464630170706   -0.81733408367737   -0.89215279294455
O           0.27184991597633    0.66003404552018   -1.13599070785452
O           0.94062892023100   -1.32634002092887    0.05133999916814
O          -1.39822529328965   -1.00882332223880   -0.51870112610536
O           0.22000140184637   -1.45170287052241   -2.27533350586458
H           1.18607486855881   -1.31067545739245   -2.43155711363942
O          -2.93621128691139    0.85366902689226    0.66915273012496
H          -2.54939786192340    0.13110970662232    0.14031100257808
H          -3.26276903999145    0.44649145102079    1.47443266899824
O           0.36372413498243   -0.08508082196116    2.35171808146097
H           1.11780719272062   -0.13868892047487    2.94216612860156
H           0.56152457322768   -0.66821377682421    1.59318302907239
O           2.69832532412311   -0.74432974273834   -1.90505681598121
H           2.45033342567624   -1.01998269383696   -1.00767091833448
H           2.64648291399459    0.21570778301902   -1.92125784249715
O          -0.52555042491445    1.91524877866165    0.83327076418948
H          -0.06810385701073    1.28739709485068   -0.30826968814860
H          -1.49860048444725    1.73288542371807    0.79546425932960
H          -0.18324813115128    1.32862840027661    1.54495185785133
