    19
        -40.91416458
S          -0.85205501381367   -1.47516262005331    0.00881395478604
O          -0.08647545206752   -1.42833854019702   -1.30695933948676
O          -0.08819856944426   -2.16277228972347    0.99651617442018
O          -1.36404689957181   -0.17540473247318    0.32532544564336
O          -2.10390593486791   -2.37752966822455   -0.32958142222849
H          -1.84314618581758   -3.28931401834824   -0.21500797652691
O           1.62048591981780    1.65477838101717   -0.95691926597609
H           2.43881792766030    1.53648220964078   -1.44164993324625
H           1.66898964870535    1.03648193140249   -0.18819057577417
O          -0.32799184411158    1.36058838961564    2.35613448797840
H          -0.36938989497539    2.26347231331374    2.03398025352418
H          -0.86745024920204    0.82652574585713    1.75120080743917
O           1.65096457323922   -0.02692881268326    1.10336531604189
H           1.14206889342860    0.48393685863872    1.76205938147538
H           1.25953538185932   -0.90939327645891    1.11325280982977
O          -0.59451548639348    0.86831629829601   -2.08918614574254
H          -1.24426039459020    1.01916242323382   -1.39084204492316
H           0.24763103795168    1.29379213837448   -1.76434386151070
H          -0.28705747783366   -0.49869274121845   -1.76796805571817
