    19
        -40.91941539
S          -1.43436812153614   -0.34100739708300   -0.66608751547240
O          -1.70925820876440   -0.61486050970024    0.74948233108847
O          -1.18693904228267    1.07318047253260   -0.88169776260227
O          -0.38639063796343   -1.18665547386355   -1.19203961754857
O          -2.75258296998751   -0.70971668810779   -1.44462778420414
H          -3.38938567333073   -0.09772634870824   -1.08891439794657
O           1.55211781823945   -1.68753266048292    0.45756059480121
H           0.85665671026417   -1.56468317731746   -0.23963878064547
H           1.56137517151152   -2.62304208989836    0.66820151181479
O           1.54449093787386    0.98287904135287   -1.41345343713054
H           1.84858933809503    0.08398122063930   -1.55443724301756
H           0.58450894177615    0.96294907608481   -1.54691269833294
O           0.59231178307133    2.07789338151156    0.83560726345659
H           1.30012040232491    1.92446106187313    0.17970923406482
H          -0.22088290721151    1.97954606668074    0.29658885733597
O           0.34159089646806   -0.09170151921175    2.03567741117832
H          -0.59572643044684   -0.33005263004238    1.62095305232519
H           0.96987477991106   -0.72536634558125    1.53991800173084
H           0.52389721199092    0.88745449930896    1.64411098904318
