    19
        -40.92120556
S          -0.52734013649733   -0.97654819013830    0.82094741380513
O           0.45680238223102   -0.05718462717299    1.39333900671733
O          -1.83841586175147   -0.83329020057987    1.39158834640507
O          -0.47818504781102   -0.95809021088137   -0.63200641348110
O          -0.01165741922651   -2.43525119922518    1.21633585426844
H          -0.42138170963319   -2.60705374551840    2.05887360957563
O           2.06750285093342   -1.21509108670431   -1.19111962557203
H           2.43997495609746   -1.86562486627658   -0.59299811558750
H           1.08924237108186   -1.28912811057055   -1.10215596068309
O          -1.99003639676559    1.69724746337579    0.56312275564866
H          -1.95222233744944    0.79513784502939    0.93626429608522
H          -2.90572412384011    1.97665671517087    0.62744110305781
O          -0.38718131452028    1.55200398514984   -1.55623177640537
H          -0.99665075363294    1.87192583038071   -0.85656659240156
H          -0.56201378698733    0.59220718192610   -1.57893211552548
O           1.74729837109024    1.17365494205717   -0.32103479457871
H           0.91603906475598    1.48438561093059   -0.91518684682795
H           1.25663126537457    0.75739546455046    0.51248277198884
H           2.09731760721345    0.33664716876722   -0.77416291660048
