    19
        -40.91103807
S          -0.19120266005775    1.16674454349676   -0.97084551006413
O           0.79235710581485    0.92230512477483   -2.00655299759202
O          -1.12877745351270    0.02725013257833   -0.87725372385380
O           0.38079478845086    1.48353511390139    0.31289018261076
O          -1.06324788659621    2.39305552345396   -1.41754428811475
H          -1.41848243125913    2.13370935881211   -2.26265253708518
O           0.40544092085848   -0.25001607270301    2.22201217077459
H           0.37937837579251    0.52310711560481    1.59697254977128
H           1.23517185019503   -0.18564441350764    2.69902878298962
O           2.13780532660829   -1.08483842025097   -1.10563096909274
H           1.73191190828533   -0.25288107022152   -1.47490225755252
H           2.43690981859536   -1.59463609541404   -1.86210100524011
O          -2.54123634403798    0.23521085187243    1.54666252785273
H          -1.78494239112139    0.14938867072525    2.13218487626490
H          -2.19383161904400    0.23352512891889    0.64597010683524
O           0.11650118571107   -1.79272268848820    0.22968667961856
H           0.23537031679948   -1.33828521187109    1.14518448439786
H          -0.53444444658737   -1.11642291494831   -0.27205649077638
H           1.00452363505535   -1.65238464674189   -0.28105259176230
