    19
        -40.91520704
S          -0.19855478370178   -1.18328575815386    0.34404032435939
O          -0.14411029668210   -2.03049417848422   -0.80218656798466
O           0.84819068899365   -0.18216343538403    0.42130753977125
O          -1.55853481610883   -0.50539745904061    0.43103497154980
O          -0.14577218329219   -2.02771762722729    1.64823662129520
H           0.79248029310480   -2.05993931950254    1.96123868572090
O          -1.33141344399408    2.22240631307401   -1.74528525028412
H          -2.23319216140483    2.06739118396932   -2.03162921065708
H          -0.80495432268343    1.46863723639639   -2.08772684547392
O           0.10784004356039    0.05960568329581   -2.48135175093530
H           1.04830034925116    0.21977953339359   -2.37764717747230
H          -0.06653227409654   -0.78501582164428   -2.03157405489881
O           2.36766929997345   -1.52671225834893    2.14056669068413
H           2.56022822202349   -1.03063831840776    2.94025749090440
H           2.15657359289616   -0.87955962207474    1.44407586443943
O          -0.90626540444163    1.86793453885319    0.82429920081914
H           0.02622012081680    1.61203659502842    0.80968090984887
H          -1.10262643247250    2.19330921433795   -0.09314828765845
H          -1.41554648168458    0.49982348989780    0.68581084598613
