    19
        -40.91907717
S           0.10350676886571    1.58986715773388   -0.49379365933250
O           0.86245499179661    1.00229255492053    0.63064468313451
O           0.92059015450528    1.72024703053331   -1.67755711412076
O          -1.13729936894215    0.87917932196092   -0.70142491416143
O          -0.27209559882657    3.05340302702203   -0.02188463797907
H           0.48428015363958    3.58936352944073   -0.24576782172665
O          -0.58235401023420   -2.35921824426529    1.27564758613166
H          -1.03488608380471   -1.49780849243130    1.51253164567978
H          -0.38493481275741   -2.80502076841141    2.10134929249465
O          -1.42874054147028    0.05234956963489    1.78777714326105
H          -1.64427349283579    0.35242712938879    0.88271959428112
H          -0.59533792532004    0.50561765686212    1.97005783282169
O           1.32539378935693   -1.34319617062385   -0.03343628256439
H           1.24530534699511   -0.34796607116366    0.30816918984008
H           0.58628443231347   -1.86050917457395    0.48403052624005
O           0.38061714253213   -0.76845213668106   -2.30412390267606
H           0.72512562349430    0.15197017669565   -2.33682603976350
H           1.00630625486342   -1.26393859648875   -1.02051482501972
H          -0.55994281416974   -0.65060749955520   -2.11759826654670
