    19
        -40.91892043
S          -0.34384162344218    1.02160656018953   -0.46762133849746
O           0.52135372415797    1.55640854193918    0.54800762015096
O           0.46293452080336    0.01126686547387   -1.30521201033107
O          -1.56015898338731    0.41724618872549   -0.01540618431406
O          -0.68283692395060    2.13669243504015   -1.48723681061931
H           0.19197860621695    2.53565756691987   -1.72178907761346
O           1.88035699647055    2.59280257356392   -1.54168305325934
H           1.77679618871630    2.39215687542222   -0.59787373247750
H           2.27251598905269    1.81244502934988   -1.94339244373190
O           0.15732632599158   -2.61402889970556    1.39354223682923
H          -0.00162973978082   -1.76021020123778    1.85753408451938
H          -0.15092499953785   -3.30459839404665    1.98285375264044
O          -0.48789201907402   -0.22336130954292    2.41454025144387
H           0.17421357437950    0.44441856211843    2.19669761302701
H          -1.21706658664702   -0.02910128985543    1.80935320828736
O          -0.87342603867715   -2.07674112847716   -0.98387591348875
H          -1.64831385688290   -1.57595236000360   -0.69832238923091
H          -0.01712340467929   -0.91445063652349   -1.28439596245518
H          -0.45426174985014   -2.42225697940950   -0.15571984087451
