    19
        -40.91893394
S           1.40985716794101   -0.99249633974017    0.22184792119426
O           1.23635459536789   -1.65355654911801    1.49037623873288
O           0.38208672166491   -1.38731927671517   -0.75368693854906
O           1.53511216489901    0.45002122535110    0.29137646798917
O           2.78341272572764   -1.51958511958484   -0.37465670959669
H           2.82895066832956   -2.41399410875158   -0.05046620439267
O           0.38445802744625    2.15905680159610   -1.27834341570749
H           0.99738556426215    2.38763497320168   -1.97948801011053
H           0.89379606228686    1.60363570394315   -0.63297788300528
O          -2.62297609686662    0.17687571448940    0.50356214417120
H          -3.05911995695783   -0.66560534916570    0.64521832624455
H          -1.89476137740413    0.22761411506864    1.17926721140708
O          -0.54980593318209    0.18751883363587    2.11121766611087
H           0.03364405313110    0.92735215910295    1.91774118611088
H           0.02728189626807   -0.59925758009601    2.03364710576143
O          -1.24556332932333    0.24283065889127   -1.61626092644415
H          -1.90229428778063    0.26691778768546   -0.81557902779077
H          -0.69778520628361    1.10813992144312   -1.57432077881282
H          -0.54003344954148   -0.50578357120405   -1.31847439329515
