    19
        -40.92315431
S           0.20892331957966    1.61160526445784   -0.49228323654402
O           0.24554572513199    1.01400058497525   -1.82965191346876
O          -0.95939763164695    1.12526034695483    0.24414309568647
O           1.42641303955249    1.43854599423875    0.25336579400471
O          -0.00242622613612    3.15390084577759   -0.72973677570373
H          -0.59070049948363    3.17028787341089   -1.47824150908726
O           1.76839755054378   -1.14958704979970    0.51698025857171
H           1.91640982167892   -0.18131763168257    0.42071998349960
H           1.11335925539006   -1.20522690356918    1.24559383265694
O          -1.85509387121109   -1.32507428049352   -0.24332353493450
H          -1.76403849585565   -1.68705375785769    0.64450871474182
H          -1.74786564843350   -0.35453420141301   -0.13462843335286
O          -0.29340975589397   -0.61121027059563    2.14100435546631
H          -0.54173802363245    0.12827394629520    1.54272249935738
H          -0.05934334490417   -0.20783111529229    2.97809428312101
O           0.34639044816628   -1.44943709004943   -1.50804990663963
H           0.34204382613769   -0.44526653121108   -1.79612810357802
H           1.03130074683639   -1.45397048821661   -0.68698087049822
H          -0.58477024580195   -1.57136554591546   -1.08810854330985
