    19
        -40.92011121
S          -0.32483462233599   -1.02429459023084    0.14388516525191
O          -0.87204457389545   -0.36160978700175   -1.04320820249517
O           1.11803811842971   -0.72547854842473    0.25585736273264
O          -1.02461228475895   -0.68280705690911    1.35576659774238
O          -0.45001690949719   -2.55751336628529   -0.06801806113191
H          -0.17094415044390   -2.69831375276280   -0.99856953069495
O          -0.07618208814189   -2.26735285130431   -2.65725805229579
H          -0.79869781248201   -2.60511868830156   -3.19154880732314
H          -0.36966764912914   -1.40444919373672   -2.30023330836174
O          -0.25555524474487    2.17856727125577   -0.96160188590328
H           0.06522056484188    2.39608161281503   -1.83932216030056
H          -0.61196594222226    1.25705971917855   -1.01512119910332
O           1.39732495741590    1.61743117904360    0.89641238830589
H           1.38818119122920    0.55102222870363    0.61480500588721
H           0.79791371161559    2.02106249338816    0.17655877121218
O          -0.17514352964627    1.27018104082923    2.85703163779217
H           0.83849261486633    1.62133905213870    1.75868153880434
H          -0.64234427043162    0.55209108168392    2.36062718519605
H           0.16683792932656    0.86210214592590    3.65525553468595
