    19
        -40.91955633
S           0.39030758062282    0.87970073884876   -1.27942087358902
O           1.32260924598200   -0.20661091040213   -0.98533519003741
O          -0.95448427085281    0.34644556343123   -1.50655419872540
O           0.42379836541078    1.92621011976186   -0.29140512844437
O           0.84147774360326    1.51831014623120   -2.65458635440761
H           0.58998309067893    0.87546143418954   -3.31126274496074
O           1.72753568119162   -0.23008531626616    1.57729630606392
H           1.67775137035833   -0.10557035853467    0.59457100820869
H           2.49181721231992   -0.78240910866392    1.75139135082879
O          -1.72062333206909    1.23326214946846    0.96485747987501
H          -2.14335615393560    0.95910419049781    0.13976142324662
H          -0.90223144870605    1.69359705912858    0.64687787802926
O          -0.67348049106602   -1.97165270845566   -0.41973575946149
H           0.26682560707955   -2.04188553447597   -0.62770900686193
H          -0.94618079660566   -1.16407196815716   -0.92948906490289
O          -0.70699324825043   -0.87832950509512    1.84886386290320
H          -1.20262279599483    0.02652801166966    1.59596815544602
H          -0.76664111332993   -1.45264073953753    0.97416958600773
H           0.28450775355781   -0.62536326363791    1.91174129078247
