    19
        -40.92079114
S          -0.60628307059401   -0.52812951279707    1.24925376807873
O           0.07519729452607   -1.73759921756206    1.63280466883170
O           0.26399581293925    0.63170179537095    1.11331529542201
O          -1.43744833132748   -0.70511741445590    0.05695690304320
O          -1.60222238956901   -0.15899229110391    2.42267969357724
H          -2.06805386334820   -0.97421462103222    2.58063221195641
O          -0.77230463432571    2.67196745898510   -0.16786796337090
H          -0.12444999467728    3.37936393990043   -0.17941012868696
H          -0.44914765716451    2.00507460318303    0.48315564276090
O           1.61440735355707    0.23015279564635   -1.14936069507984
H           1.39118683566168    0.47208028260032   -0.22761837085198
H           1.68213508474261   -0.75317968100120   -1.12389695783054
O           1.42123279945957   -2.33244280840032   -0.56270076160564
H           0.88098960671123   -2.20757240208743    0.24747986982108
H           2.13525848250611   -2.92438351497759   -0.31851140078118
O          -0.72989563620811    0.72867487592606   -1.83293283812341
H          -0.84850598160842    1.62269111076470   -1.36707728636007
H           0.31105077670267    0.51950582804314   -1.72962530935405
H          -1.13714245799173    0.06041876301838   -1.12727634142013
