    19
        -40.91476103
S          -0.94776398945534   -0.26552076109670   -0.74826702889916
O          -1.65465673880895   -0.47548459713448    0.49737677455059
O          -0.16233009355225    0.98502799928099   -0.69846533612585
O          -0.09127424209673   -1.37799123195786   -1.13843199254738
O          -1.99939721821068   -0.09181613610384   -1.89172030149448
H          -2.54798746097143    0.66825994227553   -1.60865455403575
O           2.75414954057009   -0.68142087121945    1.01342847685368
H           1.88780340433357   -0.63896560965758    1.49473574964956
H           3.04946879934998   -1.59223186788344    1.08082432833259
O          -2.76337673146100    1.89825973655592   -0.32390511906718
H          -2.76764499489551    1.20681806337540    0.35152791902879
H          -1.84630003772619    2.19451606954216   -0.37574069787837
O           0.38898785334883   -0.64895942104974    2.16985414819882
H           0.19659461061424    0.03795812737290    2.81145788835098
H          -0.39068332601430   -0.68878649804027    1.57478588331881
O           1.97078603852036   -0.07001968948055   -1.30895753361283
H           2.41912436847440   -0.27505049032122   -0.39122614412632
H           1.25947070332582   -0.83012826690741   -1.41152384852502
H           1.24502952466079    0.64553551244027   -1.09709862199633
