    19
        -40.91907680
S          -0.54770278788047    1.03815988172283   -1.18488485323684
O          -1.41463267327103    0.26731590571930   -0.26874615194776
O          -0.42912733081551    2.41707647634926   -0.77209460720489
O           0.71496604754479    0.36433933088622   -1.38325032302850
O          -1.30245132704407    1.03100023747315   -2.57644966826456
H          -1.90902232516563    1.76571242518486   -2.53461778050987
O          -0.17529002812715   -2.08018050110991   -0.94122066238536
H          -1.03923396324713   -1.67513404599540   -0.79098947397374
H           0.35244377708234   -1.33843930062352   -1.29773149681744
O           0.76364204876726   -2.17522818123781    1.48876513966950
H           0.49230254880926   -2.25381097907021    0.52805539806077
H           0.36393630935385   -2.91407640716240    1.95120348785242
O          -0.17245918029083    0.13992406946071    1.87517242559888
H           0.24438624248678   -0.81151300375813    1.82313740800858
H          -0.80973247676377    0.19977220349005    1.03600957147272
O           1.50182497311388    1.74084399011144    0.86876810681349
H           1.93360630313346    1.19861623919097    0.19576910082609
H           0.85255444034618    2.27077897556973    0.35446225374315
H           0.57998937184502    0.81484267377111    1.62864214525226
