    19
        -40.91893378
S           0.44388457948568   -0.97940360965202    1.36510789086010
O           0.72213675578205   -1.45049637860370   -0.00017748514496
O           1.59016376750504   -0.34458138627738    1.96440682108226
O          -0.78190296834601   -0.20661637939024    1.40941807132675
O           0.16169950876569   -2.29034066798342    2.21520697738174
H           1.03212812197191   -2.55554928399261    2.49663822656561
O           0.95940862464838    1.59446720925682   -1.92520415941689
H           0.95376130271691    1.79419382058755   -0.95083831896793
H           1.87572173305342    1.43385240758516   -2.15893390923629
O          -2.48387616183990    0.06417854288784   -0.52404625995960
H          -1.92028266793594    0.01609004041431    0.29122824106130
H          -3.17798815997975   -0.58766242405813   -0.41079534387453
O           0.92122953523973    1.86507283659514    0.68439115504567
H           1.35171261753862    1.13726273529757    1.17712202133049
H           0.01823618621685    1.87167379815538    1.01577646372060
O          -0.45511041878660   -0.50181035499761   -1.94041735188213
H           0.05843338558589   -0.99124387188173   -1.13837778304958
H          -1.35325298155936   -0.24477055851147   -1.51846998485464
H           0.08389723054133    0.37568353473908   -2.05203527128584
