    19
        -40.92139832
S          -0.40750103910363   -1.10333031448473   -0.29088474928711
O           1.03517068098163   -1.07002204752053   -0.05639912964371
O          -1.11411718909631   -0.45125660549807    0.80744443338268
O          -0.75018297243487   -0.51233255403314   -1.58199731253281
O          -0.85511548965702   -2.59175822194181   -0.35241255755318
H          -0.60393186736555   -2.92923702655793    0.53177645455000
O           0.12781679332325   -2.51417390839532    2.09072351032510
H           0.92195741455966   -2.16242134643370    1.66764066750417
H          -0.46227692119613   -1.75373052229314    2.18192644635955
O           2.04090831363935    1.23167660500388   -0.65687709482075
H           1.72714849955816    0.33155919668504   -0.36153997751910
H           2.77444292194061    1.07068918794055   -1.25423861995272
O          -1.40644004756240    2.12091350695496    0.60150915549511
H          -1.42974094634599    1.13665397927441    0.73533362480027
H          -0.91094996627040    2.48167703276436    1.34014124480542
O          -0.20692534573086    1.89408563280250   -1.60800161594462
H          -0.74048746636540    2.16154175650437   -0.76241752167955
H           0.76860556662627    1.77687753817168   -1.29155655092263
H          -0.50838092950025    0.88258812105393   -1.74017041736184
