    19
        -40.91904979
S           0.66773613484511    0.25485293012479   -0.92320780417726
O          -0.59142459413539    0.18856512029981   -1.62147075240758
O           0.46005867773549    1.13734235111534    0.32265022667294
O           1.25683116400844   -0.98915424215179   -0.55006673575847
O           1.67470374107580    1.06542548433354   -1.77656401859385
H           1.18425967455241    1.88375247423883   -2.03849852110447
O          -0.22578436519669    2.83107293247445   -2.01852759240870
H          -0.35481205975148    3.19278311704161   -1.13743701043823
H          -0.75339916173185    2.01753187081088   -2.06172488244389
O          -1.37282036752999   -2.06518414784527   -0.30391113505220
H          -1.31017833755599   -1.26577955491356   -0.85062172970272
H          -0.57182802668442   -2.56031394006133   -0.49699886094877
O          -1.11567343713405   -1.47400774707886    2.30529641868494
H          -1.27615448215925   -1.75786089442366    1.37734271227502
H          -1.88073035639706   -0.96035079050088    2.56821436780835
O           1.26831889370593   -0.35895869969656    2.14109500576804
H           1.70855234317568   -0.96311523800625    1.52943228715855
H           0.82236741222383    0.62214501594395    1.16284963684199
H           0.40997712695615   -0.79874605169715    2.37214836782361
