    19
        -40.91907734
S          -1.11018581402767    0.19977080612954    1.22881141051211
O           0.04663346294669    1.08637091228560    0.98150376406063
O          -2.33870671907299    0.77837809006611    0.73729248982986
O          -0.84512057389443   -1.13586986443792    0.74572190021112
O          -1.23349829599566    0.10789662473020    2.80429567993157
H          -1.74261001808571    0.87280271695860    3.05966326352961
O           0.34539910204184    1.11638001628611   -1.48167718339236
H           0.25743497678516    1.22885212531819   -0.43620200551528
H           1.12080656459130    0.43540481719378   -1.60995576479522
O           2.19229657326259   -0.60758065329517   -1.53401483355054
H           3.09484242678137   -0.30905158740725   -1.65977762791663
H           2.11293139138715   -0.89461222917151   -0.57788140871014
O           1.77915659291688   -1.03192944588139    1.00448058150884
H           1.64855436600920   -0.12926552862706    1.32294919289202
H           0.86750704728546   -1.38331978309010    0.97192306262401
O          -1.81681668131381   -0.17788689888397   -1.64780310416142
H          -2.26733971643086    0.26415726894941   -0.89364369609071
H          -0.53692639132323    0.62154880228754   -1.72528435826174
H          -1.57435830393000   -1.04204618932551   -1.29040135274673
