    19
        -40.91907734
S          -1.52946011940946   -0.20628517972799   -0.63069007567144
O          -1.15439049913006   -0.96638404215907    0.53930193135276
O          -2.36931413013478    0.93593067270757   -0.35549469209496
O          -0.33528584757506    0.17267202586095   -1.41560365488216
O          -2.35348057380666   -1.17714109733502   -1.57114658934043
H          -2.87805724723350   -0.60353971903937   -2.12367156792458
O           1.07291738318612   -1.96902090740926   -0.46065524206817
H           0.86434245305864   -1.46368588606405   -1.25731945570764
H           0.25552414302621   -1.88400507148100    0.06859979795616
O           2.60771954217548   -0.28391430143551    0.80391346382107
H           2.09029713224708   -1.03682859165279    0.39364956573558
H           3.48613933263568   -0.30941294309156    0.42018884332430
O           1.03994462611513    1.57059643076922    0.10507600095338
H           0.49823501671201    1.05375084316542   -0.63819672276919
H           1.74833970806725    0.88652052908250    0.43946908673915
O          -0.88922268903967    1.50245461029991    1.73357465392944
H          -0.88487135949657    0.58255054991052    2.02868066987059
H           0.33397822056820    1.67235584920206    0.86261320222916
H          -1.60335507193979    1.52338623837952    1.05771080454792
