    19
        -40.92315394
S           0.56944220880911    0.61705605838155   -1.47554438039040
O          -0.54967131233433    1.19212094537853   -0.72651429449497
O           1.81598359960644    0.78292359012709   -0.72365979667130
O           0.31023125802241   -0.73951812480317   -1.87606554778221
O           0.74757183340559    1.48381717162401   -2.77818896029100
H           1.21628634990596    2.24787774539796   -2.45724797008852
O           0.13426425039471   -2.14295307912211    0.33445544799561
H          -0.78290958499805   -1.83806927469661    0.50419666526594
H           0.29842904383901   -1.85677519315073   -0.59272651701852
O          -2.11328384793944   -0.68408887500441    0.31920975450336
H          -2.79858672238101   -0.99829147337322   -0.27216194885803
H          -1.62946416874792    0.01600324957916   -0.17285146694738
O          -0.47232750053520    1.14877499398426    1.92601678849173
H          -1.27497618030833    0.63986696343218    2.08196164358065
H          -0.51367099508402    1.40516523507243    0.97846147360175
O           1.50065283107539   -0.38165417558669    1.45000704796209
H           1.78880703741356    0.11268635002959    0.57577752034727
H           0.76931557142562    0.23370038056244    1.83044616203687
H           0.98390632844014   -1.23864250782420    1.07442838876129
