    19
        -40.91907733
S          -0.86152797210870    1.18444910538717    0.79773906494064
O          -1.02084990162852   -0.26895549694827    1.01622327716920
O          -0.07146554598690    1.79573701778007    1.84079999714611
O          -0.39116519440847    1.45299485061665   -0.54177188468746
O          -2.32273612642859    1.78357656165423    0.90608396580872
H          -2.46680099672480    1.92233806242544    1.83855445578607
O           0.86323425760483   -1.98152481286850   -1.68945734422815
H           0.70172271771130   -2.91125897127056   -1.85982299670929
H          -0.00806795518208   -1.50649218319484   -1.82440916295382
O           1.24058641569237   -1.23944712083524    0.69630401547255
H           1.18076442086321   -1.60154975682250   -0.27687731447704
H           0.26157062510241   -0.91911634665008    0.92398545853171
O          -1.41201607135757   -0.71052119317745   -1.65586282968954
H          -1.09199600656866    0.20608653765754   -1.54140200672077
H          -1.73531635653292   -0.93511920358898   -0.77357694803914
O           2.11450656735703    1.12585556808719    0.55714235195326
H           1.75972539069471    1.43340572571625   -0.28712728534375
H           1.49697581431085    1.50990124578081    1.21926720380052
H           1.76285591758661   -0.34035958974593    0.65420798224671
