    19
        -40.91907737
S           0.41212047959230   -0.92293270127906    1.32619930854660
O          -0.46059335803440    0.26982729573963    1.36463933228395
O          -0.35507578596946   -2.14552312019399    1.37469691272927
O           1.33948244984001   -0.84438529943048    0.22099815494899
O           1.26788892000388   -0.85473409926321    2.65620273737882
H           0.72045889724779   -1.25587167008167    3.32623720678830
O           1.42425271942205    1.79009379950402    0.09009743718455
H           0.79323970460443    1.78306414883609    0.82163248618211
H           1.69777853328838    0.85337633219692    0.03217582637934
O          -0.18767220049040    1.91655547498518   -1.95453668009238
H           0.53155735892581    1.93277128740369   -1.25790632080797
H          -0.49424709860680    2.81927303260903   -2.05761105867209
O          -1.69463596391815    0.25710576879584   -0.78789781775501
H          -1.15128394111980    0.94399499902787   -1.34874848439669
H          -1.27860588984212    0.31228272070679    0.18043642439094
O          -0.69200369198543   -2.01992116426812   -1.22287635416261
H          -1.40123894881491   -0.69077575670547   -1.10055683889898
H           0.24008833196087   -1.81600891766172   -1.37395139872127
H          -0.71151052608828   -2.32819214099175   -0.28923086327521
