    19
        -40.92079092
S          -0.22814883101926   -0.48479363289657   -1.38553780618526
O           0.94952243871469   -0.22858364992297   -2.17405631635194
O           0.01083630148545   -1.29302102224986   -0.19783685927730
O          -0.95772040633430    0.73971995234879   -1.05071510456554
O          -1.21061676143390   -1.34633659915764   -2.27861845183546
H          -1.23481491817792   -0.86855936847960   -3.10182952899924
O           1.26433146171678    0.32910743313557    1.50644257738569
H           1.00941506024456   -0.46083861250993    0.98795208202760
H           1.77198303756990    0.87822473704628    0.86385797165729
O          -1.90920011568602   -1.26658691212873    1.58911964249387
H          -1.28241337575845   -1.44854860666712    0.84958979285323
H          -1.65324621039721   -1.84229500991203    2.31254021274247
O           2.28844849690823    1.45960024685776   -0.64338753796908
H           1.79889260292824    0.90386836042807   -1.28785622031203
H           3.20583128705558    1.44728997134538   -0.92274614066778
O          -1.08669376885047    1.14867552740283    1.38694466438425
H          -1.10527967973123    1.11072378969374    0.33347896572046
H          -1.57071661870638    0.29177331651360    1.63548279085940
H          -0.06040998052387    0.93058007914536    1.57717526604185
