    19
        -40.91892648
S          -0.30884458334940   -1.31834362779654   -0.47502847135378
O          -0.23897635876937   -2.19730616323479    0.67242238931765
O          -1.37720860343416   -0.31370206245328   -0.31621207191729
O           0.94016342595623   -0.69220133069170   -0.83111708120098
O          -0.74554258920806   -2.20190379789683   -1.71164159546411
H          -1.41399503587899   -2.78541669546030   -1.36459157844356
O           0.56689897251622   -0.61187595344568    2.56566708378904
H           0.35496149801703   -1.29906290375940    1.88299176365446
H           0.19091237989508   -0.92620107008016    3.39083568666220
O          -0.17735762968841    1.24635196478542   -2.34090803731203
H           0.26848300815200    0.41770059039566   -2.09750024524600
H          -1.08626172592280    1.12872999321111   -2.04938354736939
O           1.39341279751553    1.97156802447000   -0.30571663522024
H           1.78502143719647    1.08658042355713   -0.37542109815719
H           0.88139558804582    2.05681079683328   -1.14192489394084
O          -0.43502365678351    1.33628192966650    1.27839066738577
H          -0.00428999979562    0.67041917291579    1.92574622389106
H           0.35693050240847    1.72608061967033    0.68054418966863
H          -0.95067943687134    0.70549009931392    0.61284725125561
