    19
        -40.91277724
S           0.19255570400449    1.50391567780129   -0.81973419679161
O          -0.10905976292755    2.34411159058911    0.30622695769326
O           1.25319778838586    0.52102170423650   -0.52210178246670
O          -0.94295057218490    0.84776310786751   -1.44126668591297
O           0.80317740205343    2.44886076681781   -1.93977027700269
H           1.29340615101233    3.11711114925446   -1.46923251560494
O          -1.33127746458141    0.91876729988633    2.20809669646523
H          -1.33323593924205    1.44559594697539    3.00947519092824
H          -0.98842879919609    1.50043259990348    1.50030614529022
O          -0.44836020085191   -2.75710907047506    0.01346082984348
H           0.07056602498837   -3.55485924010268    0.13425690025133
H          -0.16380380077666   -2.11516673598752    0.74093024963016
O           0.47392559123344   -0.97282438209003    1.62068815814310
H           0.93445951028273   -0.39658256769352    0.98641103662017
H          -0.24444959558239   -0.41401169693130    1.98473428253001
O           0.22427815769832   -1.26601326029261   -1.87892928054849
H           0.91319648925749   -0.68384581949380   -1.37692958722879
H          -0.10749263285720   -1.97256011775934   -1.15754196986331
H          -0.48970406067002   -0.51460695254227   -1.89908017197287
