    19
        -40.92453848
S          -0.37332769337171    0.68120090871603    1.31097982249720
O          -0.96557086040353    1.46855181299679    0.23580231049893
O          -0.93550182889420   -0.66481972986952    1.33715899186229
O           1.07367923768240    0.67786194491663    1.26429582855226
O          -0.77562390303791    1.37563210125324    2.67141187226078
H          -1.72839072729691    1.36704016123684    2.67987253947436
O           1.42872911268350   -1.75577734706898    0.42922484779054
H           0.65393150749799   -2.14651552729433    0.85064001577867
H           1.48924289616627   -0.86025452208209    0.84362329750616
O          -1.74453124416999   -0.79220213781854   -1.12185980495573
H          -1.56729060766710   -0.87760303710791   -0.15051148935466
H          -1.98528634889951    0.13575334925556   -1.22712165180089
O           0.66626682708599   -0.95391850792443   -1.83554997740312
H           1.06528551435250   -1.39300496205075   -0.97322157636553
H          -0.36720802772744   -0.96740628608052   -1.67800258261309
O           1.09368824833003    1.48260079113789   -1.35190479368015
H           0.92231569951672    0.05890081886122   -1.76581684028984
H           0.26388177256378    1.64616027859508   -0.83772409627625
H           1.78571043552453    1.51779989112080   -0.68129669601314
