    19
        -40.92217274
S          -0.62488800524766   -0.90082095602499   -0.83991029511659
O          -0.58761013764366   -2.33395671554528   -0.78365486707603
O          -1.33674726105775   -0.29648871908356    0.29352307956955
O           0.65167759882472   -0.24403807174169   -1.05963939584242
O          -1.49719675367901   -0.51214336139984   -2.12322050084480
H          -2.03528677167631   -1.28020912975763   -2.29024257438973
O           0.03192476900755    2.28256957110350   -1.31408403435465
H          -0.78406522350103    2.33787111702990   -1.81521686626436
H           0.35593703462014    1.35875362313105   -1.42197750884956
O           0.51628285515556   -1.96132726999823    1.64170751988142
H          -0.28586679488640   -1.84325608400401    2.15610636957035
H           0.22014424879243   -2.26689010262907    0.76603628202943
O           1.93917319627255    0.26400425100934    1.23823249793815
H           1.59924226856540   -0.57951145940979    1.61063401260991
H           1.91305620211227    0.10563548689679    0.27807604335720
O          -0.12214374192621    1.67256923058887    1.16813786118374
H          -0.03494254220942    2.15800966988825    0.28105697383254
H          -0.73498059551628    0.85653334452963    0.89567909090029
H           0.81628964400962    1.18269555548538    1.31875629187385
