    19
        -40.91955073
S          -0.08752404664658   -0.96674656745811    0.64730930748748
O          -1.33816883462979   -0.42185519959439    0.17155835605716
O           0.74831363000814   -1.54821503093136   -0.34971108330188
O           0.66161723507368    0.13496852679906    1.41988953101047
O          -0.37475905378588   -1.99302307074871    1.76157287248420
H          -0.99352444196755   -1.51284957790638    2.36784629672497
O           1.42680592289282    0.25120917208615   -2.28764092698608
H           0.50964840703471    0.50099094285043   -2.51812873698162
H           1.34002596079599   -0.59128757150917   -1.81401114258939
O          -1.25832859217535    0.56405020398039   -2.35936353683383
H          -1.80260527604519   -0.01223425252706   -2.89895913750466
H          -1.37480607704328    0.26798437636718   -1.43908464796755
O          -1.91788555480094   -0.17053769391710    2.78183176573662
H          -1.33905478970840    0.53898227302051    3.07434406303725
H          -2.08860690199596   -0.01664885944451    1.83829470729746
O           1.97672195992520    1.57935000018040   -0.14852033134937
H           1.79291485656597    1.16750916483231   -1.05262664557433
H           1.20361820589774    0.76766495802226    0.79143089912438
H           2.91559741051809    1.46068821585209    0.01396840013486
