    19
        -40.91904973
S           0.10687422842995    1.15587002599537   -0.12180264849793
O          -0.92328307744767    1.17327729276673    0.88614955798177
O           1.20344214640307    0.18379133132178    0.35399853779011
O          -0.30217789107857    0.82266586047804   -1.44676587400206
O           0.82230227344231    2.52960263164074   -0.13454699640323
H           1.02976849395568    2.71708244090441    0.81440862628288
O          -0.57706882638650   -2.82449667022612   -0.64574782637141
H          -1.29265727639003   -2.16005291890933   -0.52763522903740
H          -0.48878444045702   -3.28042379878030    0.19246567571191
O           0.97679917202472    2.27296994459454    2.45356512541078
H           0.09788519505403    1.88920309348795    2.30430993771550
H           1.57411577706350    1.53508525817873    2.60369415970310
O          -2.33807857900749   -0.82134667837362   -0.31645766393714
H          -2.35788417946129   -0.40237377209798   -1.18144226947836
H          -1.98638926370303   -0.14279048812217    0.28163678653697
O           1.39491027720755   -1.35374854417953   -1.59472070578742
H           1.41240980051470   -0.49225946856057   -0.42200567194861
H           0.73656149792190   -2.04047201473161   -1.31416474883362
H           0.91125466196131   -0.76158352539769   -2.18493875281259
