    19
        -40.91907712
S          -1.19725249799280   -1.06292255370612   -0.46505190229694
O           0.08496730209448   -1.12941838891327   -1.12787503390275
O          -1.40698379970899   -2.08737649511866    0.53104709220249
O          -1.43376924591104    0.28866724487400    0.08476972814422
O          -2.30619320678750   -1.25937118985487   -1.57754280955433
H          -3.07399375294647   -1.57916703162751   -1.11091779062254
O           0.21765849733726    1.42427480836108   -1.77988749584741
H          -0.63612220840623    1.51850955659152   -1.33780429324525
H           0.33825656853273    0.45464334592914   -1.81229967035253
O           1.85284487331934    2.01748109310961    0.16161814695632
H           1.33307267716421    1.83542934715465   -0.67470915071370
H           1.88018307462248    2.96987084740312    0.26977575811807
O           0.39231484918686    0.66813972681773    1.72098268214088
H           1.05485276330803    1.24914788271921    1.16854284778316
H          -0.46042305878697    0.57615447416507    1.10581470465638
O           1.05205334574384   -1.74550798149693    1.37651221778943
H           1.40119741243655   -1.74233580690584    0.47571167512203
H           0.76818584643312   -0.30192793361201    1.72365783870125
H           0.13915055035562   -2.09429093589743    1.26765545494060
