    19
        -40.90618461
S          -1.22908473036617    0.92616038135712   -1.25090373586035
O          -2.02867875279963    0.96789024909535    0.04104843412742
O          -0.20000373631193    1.92641282871210   -1.24342022225863
O          -0.80127382532798   -0.40573795573086   -1.55447903450135
O          -2.30409175570391    1.33958886055003   -2.31408230999588
H          -2.47065617141409    2.27293846173426   -2.19734117193549
O          -1.12844865882014   -2.48093775662359    0.14803695786279
H          -1.10408203006128   -1.85524332841597   -0.59827806940998
H          -0.56709085553626   -3.22133438634260   -0.08880420118575
O           3.92223734783045   -0.00546373083723    1.42023474600372
H           3.06143693622842    0.15354690363443    1.01049114133088
H           4.07550840392746    0.72603002996575    2.01995605949732
O           1.37577737390747    0.30072782950135    0.15687107980314
H           1.00661651094515    1.06980899740504   -0.31497461361548
H           1.43865145687850   -0.39498904281262   -0.50413963285003
O          -0.74174472450729   -0.34948859462112    1.69289181774244
H           0.16135651997392   -0.13615435414191    1.37520867302655
H          -1.53505562160986    0.42525790474247    0.83097714174147
H          -0.93137367723542   -1.25901330717276    1.37070694048585
