    19
        -40.92120578
S          -0.00102177368403    0.06915904297908   -1.37646138046717
O          -0.96470127754320    0.89323927106141   -0.64645555216840
O           0.98347824634607    0.83782096257937   -2.08708759261462
O           0.52926596134613   -0.98823252090042   -0.53088134680386
O          -0.86334078708995   -0.70037274993646   -2.47921777482613
H          -0.82228921978936   -0.13507175229540   -3.24471677148759
O           1.85523556723436    1.91232209285760    0.19575404754560
H           2.69910410372886    2.33523779984666    0.02267618789378
H           1.52927733414957    1.58858650512150   -0.66607755217819
O          -1.26978133430577    0.18215264200895    1.70293137938354
H          -1.54457563045699   -0.76450101369459    1.46434125369413
H          -1.21661179617462    0.61951673581141    0.74643454378132
O          -1.60522878663319   -2.07219056234407    0.53185630037603
H          -2.27992031036039   -2.12615238213847   -0.14757416043728
H          -0.76351449086345   -1.86124582254346    0.06590056437583
O           1.20849446919195   -0.04718130752024    1.87910606640497
H          -0.23429073011959    0.11611437415332    1.95593047569638
H           1.22124066145369   -0.65380344294667    1.11462136779576
H           1.53917977357291    0.79460211789972    1.49891994403569
