    19
        -40.91885173
S           1.00146925702298    0.51031011861538    0.49588211179901
O           1.12504095196363    0.86482722821381   -0.90232321817067
O          -0.44730136896904    0.45705967123939    0.86424495114060
O           1.65411649544633   -0.72595100187670    0.84916397201327
O           1.61785120756933    1.64211123423294    1.36606730473089
H           1.02526156172537    2.40381795372438    1.20450473562333
O          -0.56013242627292    3.09345288324843    0.98074250150491
H          -0.80309635447661    2.15284251619446    0.88415125363291
H          -0.98143896348756    3.40689445022528    1.78435499753728
O           0.42681285276942   -2.93829852546737    0.29365883054998
H           0.34853069895333   -3.41533467829294    1.12254159430466
H           1.02851052773151   -2.16850893974316    0.47518559735421
O          -0.40890805742222   -0.40904948641715   -2.53134792382107
H           0.28650508428809    0.07623748049831   -2.00561441439271
H          -0.88512051494836    0.26310936630136   -3.02352618283703
O          -1.42640683427547   -1.39317721961445   -0.44918483702217
H          -0.77341754755603   -2.15241907999289   -0.18791237390416
H          -1.10736964420952   -0.58863644149481    0.17105971568309
H          -1.12090692582928   -1.07928753956390   -1.39164862571972
