    19
        -40.92052673
S           0.24817526731624    0.79868468843412    0.07400432101281
O           0.93037469558645   -0.30121601068654    0.70930124821359
O          -0.90041868076808    0.39986284086259   -0.70083090189984
O          -0.18201178226811    1.84110260512115    1.10993148921945
O           1.24427564804145    1.57446040204183   -0.79263625565934
H           1.91258315219773    0.88719625036065   -1.16290307616910
O           2.58856978356744   -0.42408882592346   -1.54987278772366
H           1.86203352003870   -0.82379365140475   -2.08041432355791
H           2.54893770291260   -0.86116033116398   -0.69102926702892
O          -0.97357326291499   -1.21965587027755    2.37296469656326
H          -0.23502788834704   -1.03739769163158    1.76167480723347
H          -0.58855419434251   -1.29570075101824    3.24847731113544
O           0.24141765458350   -1.13473299721091   -2.59231178157168
H          -0.29759932939065   -0.67443301503920   -1.92156719845955
H          -0.07223301287511   -0.83213066127347   -3.44704272064455
O          -2.45483940493998    0.85263868106077    1.59072464142046
H          -1.13932324803568    1.59838663963174    1.39432077619962
H          -2.62475623559010    0.62116157135605    0.66995706583903
H          -2.10803038475127    0.03081612679073    2.00725196583498
