    19
        -40.91739544
S          -0.29997890740167    1.12888141856823    0.51440821081332
O           0.31420701306876    1.10766831775706   -0.78897418608450
O          -1.81024128853048    0.99189011794060    0.40675426062862
O           0.25333775421100    0.15661014975491    1.41943572052635
O          -0.18146684010795    2.54724227291277    1.13017417919417
H           0.78741010765667    2.69128361442230    1.19370537605524
O           2.36060067240416    1.97473386229364    0.85412690779324
H           2.17441844020117    1.71496779433831   -0.05663577460603
H           2.35996336962230    1.16235177164448    1.37057824628929
O           1.07347368014682   -2.22040772056133    0.44609775692246
H           0.63611261885559   -2.91166354635001    0.94674878717099
H           0.83464314562903   -1.37943517070903    0.87890500569924
O          -0.06950922724414   -1.36867984476885   -1.84610642328042
H           0.18654547407366   -0.43899840820842   -1.72659642207249
H           0.44989533187263   -1.85557879963469   -1.17420457095209
O          -2.40058041020911   -1.12999610700437   -0.78794048278670
H          -3.04053857150354   -0.93605533676153   -1.47716936091561
H          -1.52580916983212   -1.33053829237142   -1.25578171308518
H          -2.10248318291807    0.09572390674464   -0.04752554730807
