    19
        -40.91907675
S           1.10059811561199   -0.39830148117671   -1.18796822526858
O           0.80129275580382   -1.22696571974877   -0.00108539604887
O           0.43950044650625   -0.90100397771655   -2.36959012319971
O           0.85063902324288    0.99820888863614   -0.91382644837037
O           2.65833906139578   -0.55484626555966   -1.42266082550437
H           2.75288409593343   -1.34261457355541   -1.95175313554486
O           1.27683438627505    0.87596467082157    1.68738607499967
H           1.23312257033104    1.21703329505202    0.77217833783768
H           1.44499107437727   -0.06618560453863    1.55663939385531
O          -1.60874040480675   -0.86966848437896    0.46871987094171
H          -1.57406935615685   -0.17075064396784    1.23827162822428
H          -0.60235207879835   -1.14460867358219    0.31043036867311
O          -1.26111845336760    0.85598664727975    2.28147060280593
H          -1.36778118142584    0.58790975480832    3.19595127999183
H          -0.28006755999739    0.98953970630150    2.13114664620392
O          -1.72508537589869    0.41949765018707   -1.69998500139877
H          -1.22075626744709    1.21830841871908   -1.49778627947702
H          -1.08338404845521   -0.13819550488648   -2.19408992658353
H          -1.83484679319931   -0.34930810270083   -0.40344883211599
