    19
        -40.91493712
S           0.04123175720506   -0.28925591361705    1.68764501006345
O          -0.43430986892921   -1.42460229739306    0.79961823987626
O           1.45319997543329   -0.39630698535112    1.89028957539175
O          -0.47213762410291    0.95814664762714    1.21501716994206
O          -0.65407201007146   -0.57528637423844    3.07530680300755
H          -0.12915735632900   -1.23291716553961    3.52659804868269
O          -1.14950428101489    0.09798467279633   -2.54408781722776
H          -0.62604018264845   -0.63883642528205   -2.86419132992141
H          -0.50303388480831    0.75962454203268   -2.18591994389647
O           0.59764309390698    1.60315330167000   -1.25982040264446
H           1.38254989796675    1.03076214324083   -1.16897830631863
H           0.21129000612210    1.64455131556463   -0.37356702083903
O           2.55945835340618   -0.15464131218902   -0.56535410960489
H           3.47297302693057    0.12459108527685   -0.47545803304109
H           2.23519328677389   -0.32684313028198    0.33625419111705
O          -2.36772216668657   -0.36770188399419   -0.30226706554151
H          -2.02809703015852   -0.22368261437211   -1.23795423092691
H          -1.32060248802387   -1.07282510528447    0.30467135242995
H          -2.26886247497663    0.48408550943601    0.14219786947810
