    19
        -40.91437274
S          -0.68394725222849    0.54056043684239   -0.53431580768385
O          -0.37260330463145    0.73550085328960    0.89224413129637
O           0.52362980084116    0.59110039692054   -1.34221616203019
O          -1.45031044121807   -0.68567196661947   -0.71242883515737
O          -1.60931010305263    1.71276135193881   -0.98162004604416
H          -1.02189516778038    2.47403779812458   -1.18600403732919
O           0.43529100426956    3.20559260364473   -1.72327867793084
H           0.78058332933090    2.29436258283015   -1.65671352962987
H           0.46401176366482    3.44269467547186   -2.65325135746543
O           1.99858057106735   -0.76884593741987    0.41647927654491
H           2.03038087658468   -0.08954063339841    1.09561783905105
H           1.55280020911115   -0.34201246510965   -0.34219237112713
O           0.57364227031196   -2.75710167373215    1.38161334137595
H           0.46352208227180   -3.39098348205612    0.66966820756013
H           1.20131016469286   -2.06386295290096    1.04191654500346
O          -1.47317468903812   -1.30203859121589    1.66416843106153
H          -0.68234257608215   -1.97849294307664    1.68303279558539
H          -1.00072528194208   -0.35632337228949    1.62512841813429
H          -1.72944325614907   -1.26173667128947    0.66215184880655
