    19
        -40.92343659
S          -0.28069775157156   -1.26248645992404   -1.08298525681200
O           1.15237578411883   -1.13984394695674   -1.24481910012779
O          -0.63166750153658   -2.01553181941013    0.12196579368968
O          -0.95961237114939    0.02285318241587   -1.13095625130369
O          -0.82972284661540   -2.09724424471580   -2.30101806331518
H          -0.37235224069856   -2.92732849380440   -2.20960352269942
O          -0.10110953972291   -0.54734228756660    2.05427156444866
H          -0.78093376179442    0.20177203408135    1.87259867891282
H          -0.35832111797389   -1.27846008547546    1.35284813220236
O          -1.66279642217914    1.24090645086609    1.13680660022858
H          -1.17700396778710    2.05810821388343    0.97993565768982
H          -1.68975416463630    0.78995286506133    0.26730972356071
O           0.54718088418601    2.13494658641470   -0.56996604347607
H           0.00610036570207    1.39283388441393   -0.91984324338889
H           0.97340399582379    2.53684876258030   -1.32818112815039
O           1.90039223585841    0.27836598544710    0.82154813154861
H           1.83719692507600   -0.33790947687680    0.05311778896263
H           1.59752820715875    1.13623263831098    0.45676521420629
H           0.82979331775365   -0.18667377874286    1.67020532382598
