    19
        -40.92003336
S           0.71744800300270    0.50484384364347    0.00333111970757
O           0.66321488757409   -0.60108654670319   -0.91915094530131
O          -0.48593548319921    0.64416555743935    0.78869812951135
O           1.92521982874104    0.37267822688446    0.93398823799476
O           1.03214236432216    1.80694438584197   -0.73627556290491
H           0.28655158747901    2.04285024397264   -1.39358364664273
O           0.52120668320091   -2.67763920576038    0.76859814632568
H           1.21708106830784   -3.30690185733594    0.56786970047687
H           0.53534811478200   -2.01280574156200    0.05329629538004
O          -0.98326282267552    2.27571492196882   -2.21551075897796
H          -1.48582426536866    3.01408629665861   -1.86271971598833
H          -1.50817663648988    1.45549903820843   -2.02049338466234
O          -2.06100805017708    0.05265510039438   -1.31426598665170
H          -1.74817430632639    0.21622416728371   -0.40757369335635
H          -1.48723275934338   -0.64301711586626   -1.65106559334607
O           0.73558199445679   -0.90765755679328    2.75623791428675
H           1.59213011804008   -0.10762187451399    1.77803951921792
H          -0.08304049184107   -0.40731543443708    2.65377738788977
H           0.61673016550330   -1.72161646934912    2.21680283708053
