    19
        -40.91620836
S           0.40540254918239    0.34754596345574   -0.95742150118315
O          -1.07428666130538    0.68700672553762   -0.96288744942919
O           1.14720276209674    1.36043847888550   -0.26055203143275
O           0.60908363368532   -0.99198878666632   -0.46974832837014
O           0.77138612316599    0.39812887458735   -2.47453099833327
H           1.72555626159902    0.17934303670750   -2.51323110646794
O           3.11054008049862   -0.27438058320824   -1.47025391065963
H           3.15418052433457    0.49098868479417   -0.88740507963405
H           2.64780676318083   -0.96004414936383   -0.97363333470452
O          -1.67319815523991   -0.76592239428870    2.25221679578128
H          -0.99442492134677   -1.28217768879696    2.69062000994102
H          -1.30913556306757    0.14147865940098    2.16856147086797
O          -0.54252461317546    1.64785674510462    1.83370466557028
H           0.17175796250657    1.61165796505132    1.17443039731801
H          -1.17764576684155    2.28479769859161    1.49918828596532
O          -2.05120249048302   -1.47900532761524   -0.25321694898789
H          -1.19648558683385   -1.91549301629963   -0.37941071020261
H          -2.09789103497112   -1.28656140891566    0.72043968910297
H          -1.62612186697669   -0.19366946697084   -0.73686993513410
