    19
        -40.90742661
S           0.34041972611651    1.05069013873095    0.44257081933841
O           0.07320668224714    1.16917724862953    1.84012728543797
O           1.62748941922803    0.27425498621347    0.21838317024861
O          -0.69565645687815    0.53799058698983   -0.39840479854457
O           0.68850553206212    2.49895722727658   -0.09185147506447
H           1.15174443166526    2.96220171935212    0.60348030633886
O          -1.93958637179059    2.76488274709842   -1.57123965984918
H          -1.15000892190863    3.30906676055660   -1.56359586438556
H          -1.67144950934969    1.91066983229541   -1.21136069296532
O          -0.94906750437476   -1.34262201083364    1.77326915449370
H          -1.77713910770618   -1.13700538978625    1.33210904291354
H          -0.56717360147517   -0.48854891759917    2.02713160466647
O           0.41313103493742   -3.05241949047794    0.18639494531186
H          -0.11176501658921   -2.50071329649809    0.80433442066089
H           1.13549682907606   -3.41932206483353    0.69891957554656
O           1.00115275261435   -1.25355161229002   -1.62023392041913
H           0.80929368942689   -2.05954596222224   -1.06682323069305
H           0.14262602421119   -0.84411840242314   -1.78980130937104
H           1.47878034890500   -0.38004409975616   -0.61340939387325
