    19
        -40.91167188
S          -1.44851266141571    0.45504635836858   -0.38535542299995
O          -1.95477048012198   -0.07744778914909   -1.60928201357162
O          -1.02767069558803   -0.69444733572005    0.53385669585983
O          -0.42051253299616    1.44490085800541   -0.47434194891990
O          -2.62810659118036    1.11113458288789    0.41646718728926
H          -3.40759078040622    0.57137962438911    0.29955287152738
O           1.93372838151917   -0.59179028878229    1.32672592421183
H           1.19594638851735   -1.13423050446236    1.61420411955361
H           1.71731414445449    0.31666696112491    1.61688589964078
O           1.52749284647002   -0.39727320923230   -1.31328153445280
H           1.01110802819989    0.41719724531967   -1.28154112090662
H           1.88722420779662   -0.50930393102115   -0.40273712785000
O           1.01105564315382    1.92524801058693    1.76777411898257
H           0.42238212015805    1.84961140471483    0.99603588811151
H           1.57839597042915    2.68114840798211    1.60391196846792
O          -0.28727650374696   -2.24063998416775   -1.24995840227714
H          -0.92851395321715   -1.95533166875037   -1.91281136339064
H           0.53877105544480   -1.70041095791854   -1.42180867236766
H          -0.72046457745947   -1.47145779415963   -0.12429704690734
