    19
        -40.92453848
S          -1.46109211497729    0.33190755781549   -0.27891507714658
O          -1.32083421666201    0.13252565760177    1.15944749989986
O          -0.67067482711398    1.47431078581994   -0.72276794910530
O          -1.17546170435707   -0.86858123905191   -1.03610352683330
O          -2.97696341720150    0.68226278304046   -0.55108907086562
H          -3.13904319056692    1.47825871814679   -0.05292793600817
O           1.20386614848013    0.14243588573707   -1.93641273448335
H           0.53739254964469    0.79261001338411   -1.60044960235629
H           0.66345888212033   -0.58038527350974   -2.27592164566791
O           0.94833795408328    1.33780884887939    1.49670581250278
H           0.83277984044266    2.02261028973902    0.82757022504788
H           0.05424466432098    0.91358877700954    1.55239678366215
O           2.06894789143439   -0.58528260490963    0.31647099503639
H           1.84917090141727   -0.31675502297821   -0.67127734603121
H           1.74800197203097    0.23413608710091    0.88098239447924
O           0.15876628854504   -2.16405453985070    0.77704791751227
H          -0.30188504792820   -1.81203049623763    1.54801949781438
H          -0.40441515212245   -1.87213730649030    0.01873565832637
H           1.38540258851379   -1.34322894037647    0.54848810464313
