    19
        -40.92079117
S          -0.38258420879635    0.64607515356097   -1.28237292524067
O          -1.72403560154465    1.15737445718097   -1.16742586755842
O           0.54101121429848    1.15895229609232   -0.27988337659186
O          -0.34170087918297   -0.81652495164870   -1.33677278543945
O           0.19394888854821    1.14905451591376   -2.66769702742614
H          -0.49020790448658    0.91709045601592   -3.28798365398392
O           2.78256043616643   -0.17768578732437   -0.02072279372459
H           2.05120035346081    0.44473155063318   -0.24597004081963
H           3.31412651688082    0.25613517705946    0.64971219229046
O          -2.59844450894198   -0.04184689347432    1.01940180655369
H          -3.34463318612971    0.46028886705567    1.35242116734091
H          -2.35801318967877    0.36426533888821    0.15849854158591
O           0.90267590899192   -1.81609453213303    0.55500472833416
H           0.34278275876836   -1.53708037339828   -0.29347436299199
H           1.79429735809982   -1.36555056169909    0.37456288750073
O          -0.14650473827770   -0.06578653911454    1.98637809926914
H          -1.11819794150999   -0.14669944715914    1.83950949021483
H           0.45097662912813   -1.20500749394397    1.30297385857183
H           0.13074211421803    0.61830875748733    1.34384008211826
