    19
        -40.91792407
S          -0.98760075194825   -0.01089933349372   -1.37192768177746
O          -0.14351642961499    1.08162628187042   -1.82370874164994
O          -0.27834102851007   -1.27937876393731   -1.35647590463347
O          -1.63052134224590    0.27256710021067   -0.09741028962608
O          -2.15853663044786   -0.14429619458698   -2.42995074727386
H          -1.68740200234596   -0.15203947717797   -3.25725998222091
O           1.39618150945732    0.27192529729766    1.58391519085214
H           0.57273998123911   -0.27496088436529    1.86747772415625
H           1.79806812689707   -0.27765709530330    0.78825806480807
O          -0.75361520097890   -1.02038872652375    1.94558601520243
H          -1.16874762819866   -0.65577179314550    1.11594168981983
H          -1.37017350970961   -0.83968513440745    2.65767092756588
O           2.08611826823181   -1.11368316702398   -0.39221320704783
H           2.32268149194462   -2.02028092306314   -0.18317009523979
H           1.20008143973297   -1.16510107404186   -0.85695050366788
O           0.24730037690960    2.19045275329345    0.45176024394120
H           0.23268138236414    1.89874400267838   -0.50133534995466
H          -0.67479017686977    2.08857579290973    0.71655145863247
H           0.99739213398228    1.15025131879686    1.14324118812118
