    19
        -40.92158986
S          -0.70043677520368    0.50613290085867   -1.19626930727236
O          -1.23157697909603    0.43616114091825    0.15673250451124
O          -0.40559669329552    1.83146963500115   -1.66862543032080
O           0.43710998343776   -0.40998434279893   -1.35224240830566
O          -1.85440923597068   -0.06746609617401   -2.11867997263684
H          -1.67026613614018    0.29856514255242   -2.97837260296048
O           0.85195742251033    0.66443336393407    1.80772272468849
H          -0.04999525247911    0.78938925865599    1.45225478979935
H           1.40996942502954    1.21907869689579    1.21252963515293
O          -1.51950485651926   -1.97872315533503    1.12650065596531
H          -1.62110275931768   -1.09431508040290    0.70202398222727
H          -1.93961761703996   -1.92078696585852    1.98700263873244
O           1.88604509105186    1.85588593532018   -0.31148025536321
H           1.07411740680606    2.03567888413833   -0.82451928031534
H           2.40527358120290    1.26143341707320   -0.85803014297900
O           0.98111760570076   -1.58969679629030    0.75660480526780
H           0.06379583105805   -1.96075801466753    0.98408359090156
H           0.82998061257519   -1.18859355334850   -0.20759355544876
H           1.05313934574632   -0.68790435052387    1.33035760837446
