    19
        -40.92052674
S           0.60452139765861    0.31895294102996   -0.48835050706089
O           2.10922147459579    0.40120823286867   -0.21622939790969
O           0.17344631914656   -1.05464638793234   -0.56499566719416
O          -0.09832013738865    1.09361924497209    0.50398371286483
O           0.47531115385648    0.96372092996411   -1.87135473267986
H          -0.34288335470588    0.53555768617920   -2.32226751606127
O          -1.62512714581070   -0.25384115003494   -2.56430021114274
H          -2.20314877722648    0.17684920001479   -1.89369458542032
H          -1.35260193789229   -1.09010669217172   -2.16854600865114
O           0.83511962023778   -1.95810542437910    1.88088719528318
H           1.33797257273220   -2.76778572572534    1.77083590570990
H           0.47611719738531   -1.73447309159611    1.00143754818486
O          -2.61513710124265    1.01706924683716   -0.44210670171365
H          -1.76972589017967    1.05014966488274    0.04429869206366
H          -2.94713406112363    1.91685546356182   -0.47057694608492
O           1.94780326377404    0.42615131122222    2.30317770344127
H           2.22308753385941    0.45815108502471    0.80357327836088
H           1.16799545643748    0.99360376738189    2.31480900416505
H           1.60348240588963   -0.49293031209732    2.37941923384849
