    19
        -40.92123225
S           0.42475893684078    1.02312405322270   -0.49143038386691
O          -0.79892235304533    0.99264168356250    0.42419253496670
O           1.54206117077323    0.45586576012368    0.23648885092352
O           0.14580823795817    0.41101318019946   -1.74948831889245
O           0.66445048950818    2.53428795874591   -0.68979235954974
H           0.88798194248014    2.86417528896557    0.21499168056057
O           1.16942047635342    2.57090163302658    1.86439512758676
H           1.57528152391075    1.72627768443941    1.61040451534635
H           0.31380094231531    2.35932244234546    2.24887570108902
O           0.92449473661195   -2.13354534782474    0.51671403383473
H           1.28108520972595   -1.23895683028284    0.35212883518004
H           1.45739656314742   -2.51593310778374    1.21669077110450
O          -1.73154089672411   -1.47753287508353   -2.14614072246278
H          -1.10959860372921   -0.72721031233137   -2.18477222843108
H          -1.27094226406492   -2.22316447509161   -2.53701827476910
O          -1.61744388200114   -1.33503119867717    0.48712204669644
H          -1.23029705647965   -0.00804490069523    0.49203016415799
H          -1.86840029798408   -1.47456195712009   -0.46092566278014
H          -0.75939488559454   -1.80362868973922    0.59553368930504
