    19
        -40.91905004
S          -0.78083132066106   -0.71818728322526   -0.48710449807880
O          -1.67156753836604    0.23973151112753    0.08120454038268
O          -0.09999927919275   -0.32692374616817   -1.69586726498061
O           0.29421907246409   -1.11761214837956    0.54185645837087
O          -1.54356341502686   -2.04139186782913   -0.74477464384598
H          -0.88269778262797   -2.63451342632569   -1.18095022264326
O           1.12931361264274    2.31023923140083    1.45019150466988
H           0.74270817431755    2.40011434091362    0.55009191152190
H           2.07657569413409    2.22698483043391    1.33210324402848
O           0.67803824521750   -2.90753197451613   -1.79442686167527
H           0.69935596236642   -1.98803559074962   -2.10450300148895
H           1.30167573525762   -2.96336611388165   -1.06523810530623
O          -0.01258755810294    2.30088981287138   -0.98172124108271
H          -0.95108121930725    2.36753319064345   -0.78444860763703
H           0.09229314582755    1.43494946703330   -1.40724277433216
O          -0.29140815655863    0.33902267228812    2.47413037694990
H           0.11384741161517   -0.59571430466455    1.43514172057262
H           0.27344029852429    1.12411772827673    2.25466287433880
H          -1.16773107251172    0.54969366078768    2.12689456023336
