    19
        -40.91451135
S          -1.08053574905928    0.94353720200528    0.57363255713069
O           0.25663751104358    1.65901654247435    0.50939034875695
O          -1.76751693370941    1.06509397793210   -0.67338576566932
O          -0.92552542683311   -0.36898687787807    1.12212447707766
O          -1.89505958556778    1.77941052429611    1.63947406324947
H          -2.22336623535346    2.56919062183630    1.21367275483881
O           2.61553793920762   -0.81535398473517   -0.52140721597994
H           3.28594968581924   -0.30548001254987   -0.97919943440270
H           1.78910583654386   -0.71452482985900   -1.04649567649562
O           0.31663111934254   -0.39503485689184   -1.82046801443033
H          -0.26581766487489   -1.17119512039591   -1.70409149997291
H          -0.25728847677153    0.36366847923761   -1.67077594144544
O          -1.73389037801325   -1.95232475131286   -0.97102356549117
H          -1.50931568742924   -1.60792896024104   -0.09341581911245
H          -2.44354166492394   -1.39370166681399   -1.29736014144869
O           1.70766417978707    0.09323997967233    1.73758674500387
H           0.98398729339338   -0.51391734993023    1.94421783502438
H           2.18574061233197   -0.31240021378219    0.95697200592864
H           0.96060363506712    1.07769129693426    1.08055230743720
