    19
        -40.91355603
S           1.08386542483694   -0.71098023210034   -0.83625434999754
O           1.88204475791739   -0.88771534424377    0.34265250229485
O          -0.09064500320961   -1.61266626059385   -0.85850301836091
O           0.68114001633283    0.65146159618889   -1.12175407753651
O           1.97358959465766   -1.15279771208108   -2.07187672281947
H           2.42580058493810   -1.95230815477165   -1.81355129079921
O          -2.57593099174060    0.28436704197045    0.87188077026403
H          -1.68725955342024    0.22736113141903    1.32507754078627
H          -3.09410419628037   -0.45115915528771    1.20487352677147
O           1.48013224061260    2.00229585746710    1.10445297558409
H           2.30119902747553    1.54817412174164    1.30920642894476
H           1.23887959054255    1.70892181197525    0.21003032851227
O          -0.18761990732894    0.03890154251842    1.88773017137071
H           0.26083910276487    0.90919792612694    1.85406976390552
H           0.45137489198426   -0.56418925824499    1.48214731849181
O          -1.77381153635111    0.00206818910861   -1.49256833633969
H          -2.22159602754227    0.17321822078232   -0.55968223972307
H          -1.04378482929417    0.66383230238291   -1.56715930733820
H          -1.10411320688738   -0.87798362439395   -1.27077199402070
