    19
        -40.91386723
S           1.01703852221400   -0.14921626483435    1.10101543388283
O          -0.32703798467829   -0.61327178253412    1.22000510996177
O           2.06323604015092   -1.11624540704981    1.03209603473861
O           1.14769522639132    0.83569742680605   -0.05472155543294
O           1.29226292851959    0.76413365107764    2.37033755448093
H           2.23175859748221    0.74034925579815    2.53984099774930
O           0.59056088962486   -2.40516033248454   -0.86340523580908
H           1.29994012958807   -2.10527357194729   -0.27773190616256
H          -0.10914890632593   -2.72669543267598   -0.29023117859144
O          -0.42090903588406   -0.32914566332815   -2.32228629128425
H          -0.07019938413574   -1.16576630204065   -1.96318319389227
H           0.28328015792523    0.31475511180894   -2.21625971623703
O          -2.28044388816429    0.31829899658571   -0.50218640161878
H          -1.79442275645592    0.07313985467484   -1.32105747189068
H          -1.90095697612905   -0.24485953542665    0.18776707397836
O          -0.83824364392249    2.29168836774236    0.24622191622671
H          -0.98494288210919    2.36440142479088    1.19267061409574
H           0.33535166556377    1.51799449362321    0.02271434198025
H          -1.53481868965667    1.63517570946980   -0.10160614613637
