    19
        -40.91907727
S           0.12490128260688    1.02849927178563    1.30735577902293
O          -1.14567247586682    0.61838377697898    0.67251466097047
O           1.14058663834851    0.01787695581182    1.12112375877343
O           0.52157809501724    2.35492892934660    0.89631523339426
O          -0.18773613594392    1.09332383018975    2.85786725298022
H          -0.55561474503806    1.96133696516168    3.00163678457026
O          -0.50811856434354   -2.03286010153258    0.92289988156034
H          -1.22305270680066   -1.39300815880310    1.03489387796570
H           0.28939761624202   -1.50311855421958    1.12100101065240
O          -0.33892545565367   -2.14595135596587   -1.67589481945592
H          -1.04660249005117   -2.69808760340535   -2.01327552699403
H          -0.34799709393037   -2.24019382656700   -0.67900341893425
O          -0.63035847334764    0.36336138530170   -1.74093214855251
H          -0.51029226767057   -0.66623885490883   -1.82535011635316
H          -0.96723927652603    0.51401733031391   -0.75196434385494
O           1.64578081415009    1.33923488021777   -1.24418031580978
H           0.32287615748233    0.77904684814720   -1.71498593159299
H           1.34538247722664    1.97272184842655   -0.55460802023658
H           2.07110660444156    0.63672643340619   -0.73541358786543
