    19
        -40.92174072
S           0.07502976603891   -0.15347580141667    0.88099242199088
O          -0.12021344345717    1.27306453476171    0.40124096448750
O          -1.15416032213835   -0.90311127154969    0.72909863642738
O           1.21685601894110   -0.74650846612445    0.24906680096220
O           0.36817181197164    0.01175064650121    2.38794723392892
H          -0.51254785386825    0.16272430507031    2.81905740364603
O          -2.15635835331184    0.03697874073615    2.99226770347643
H          -2.47474339831196   -0.65106303876357    3.58214948083685
H          -2.16395585810108   -0.33593546830516    2.09132516890523
O           2.55483357880126    0.46007255458036   -1.75046802882462
H           2.20743078027479   -0.08417858693181   -1.01852761722762
H           3.25673676778684    0.99752576621045   -1.37987339580770
O          -0.72730559192708   -1.25039078935870   -1.92081925814516
H           0.09230739893023   -1.75119816582060   -1.89812823164923
H          -1.06797834205928   -1.25790165516405   -1.01107231836291
O           0.04672259695784    1.28627900112497   -2.06386374055321
H          -0.08523478937129    1.36273510352097   -0.68184042414503
H           1.01439977983999    1.13206309226093   -2.16531461956371
H          -0.36999055699861    0.41056951867375   -2.24323818036892
