    19
        -40.92136408
S          -0.57897992297666    0.17464115350069    1.24723254713385
O          -1.40486659249590   -0.84331257605241    1.84773062804981
O           0.78391092361323   -0.23634898705788    0.99564153071039
O          -1.18773626277411    0.74340202889544    0.03169397756713
O          -0.50639342161524    1.38288096476873    2.27489120032269
H          -1.32832814369061    1.33152830737387    2.75451705678666
O           0.77020323128534    2.41493737200133   -0.72976930099561
H          -0.04593124745486    1.95142270902057   -0.46291801859109
H           1.13727395391060    2.78883514764625    0.07309827007296
O          -0.54395731564724   -2.59387617622719    0.07564772664619
H           0.34903369995420   -2.74414303080773    0.39828230167889
H          -0.99106229629958   -2.07703767653045    0.78377673532850
O           1.76125611584409    0.03890784849576   -1.41949928895778
H           1.67701643728691   -0.14711914717404   -0.45627175353602
H           1.61069159862883    1.00900486082774   -1.46244915307117
O          -0.52196422597128   -0.85028163724501   -1.78762453655756
H           0.51954891682922   -0.51372330654391   -1.79209111510353
H          -0.54719855082891   -1.68458123392044   -1.19450713783817
H          -0.95251688702794   -0.14513661040057   -1.17738168896357
