    19
        -40.92120572
S           1.19646653171211   -0.64659503907427    0.23411915353596
O           1.64920676775729   -1.70531179810614   -0.62562622427087
O           1.24057143227273    0.67218777728771   -0.39850107160048
O          -0.08697389549127   -0.87572089094435    0.87741955313590
O           2.23564653401329   -0.56130463890523    1.44390617911116
H           3.06405914321814   -0.83319078225541    1.06030131815270
O          -0.48512830126880    1.29152010468447    2.29294828118559
H           0.34852617616965    1.54144610345210    2.69577544134739
H          -0.35913787498945    0.37836954712683    1.94581698222450
O          -2.10778199612319   -0.15689687611622   -0.72295825710099
H          -1.63979130858399   -0.48261809992405   -1.52171223851180
H          -1.66331212126274   -0.63413784860222    0.00296276015958
O          -0.29414435517313   -1.18512579853711   -2.37761339858033
H           0.46635947782214   -1.37061571510859   -1.79323926323309
H          -0.35589781929166   -1.92737392177907   -2.98253025225906
O          -0.87238687551222    1.93555653097890   -0.15672134730050
H          -1.53127762359301    1.15152022857782   -0.45992133255169
H          -0.87011647717444    1.90145258128894    0.85693545995500
H           0.06511258550082    1.50683854595725   -0.37136173340031
