    19
        -40.91437270
S          -0.06132810809760    0.82081309558502   -0.61110525239155
O           0.33938422116954    1.36415703636098    0.67637787744224
O           0.67736274667791   -0.41817635646187   -0.91282661755048
O          -1.49411468089091    0.58411484555203   -0.72143666545717
O           0.30391927247600    1.86746204530510   -1.70705615338549
H           1.15898262835205    2.27060109880295   -1.43740661797775
O           0.48556026048845   -1.02002906159018    1.86462178904840
H           0.38593648966808   -0.09048893067125    1.57744790614248
H           1.25888121936654   -1.34042038635011    1.39234731145162
O           2.32420893415174    2.81300532088388   -0.29889869023926
H           2.26247092836838    3.73772022837633   -0.04806136908253
H           1.76906053923018    2.31517428399029    0.33194745287154
O          -1.55087935431521   -2.49641241915602    1.09698657900168
H          -2.33582560402320   -2.11855094649870    1.49931665878409
H          -0.77706760618580   -1.99980710566160    1.47705713956185
O          -1.29773302125888   -1.79184144356298   -1.31702492921110
H          -1.69503989448721   -0.84423823897747   -1.20845513400748
H          -0.30332798425529   -1.42681712555252   -1.27000424139692
H          -1.45045098646850   -2.22626594039091   -0.38382701361024
