    19
        -40.92071376
S          -1.11414821385550   -0.36972824128974   -0.90302790034515
O           0.25353795281857   -0.71400525530477   -1.21682910877558
O          -1.93041684819082   -1.49588758428444   -0.51194355594560
O          -1.15793259213868    0.71080285889344    0.10192348822142
O          -1.76694606134026    0.23444464621131   -2.20910007792094
H          -2.69328090145384    0.03068534767754   -2.11603775061475
O           0.66896829950116    2.63499554227076   -0.29259965864798
H          -0.09158945994288    2.02167590714606   -0.25276754713424
H           0.41121447188990    3.42340626093242    0.18722681759484
O           2.18081262614673    0.47843796506137    0.11213907475042
H           1.67657179624337   -0.01605995194076   -0.57470903886688
H           1.93908104217213    1.41378871093085   -0.05449723467373
O           0.48654602455361   -0.14018820427933    1.80688359412181
H           1.35365394769637    0.13209060447722    1.18903747915211
H          -0.27536593479691    0.28549231245690    1.26706132044259
O          -0.03636781349927   -2.49100402588530    0.99734428880242
H          -0.85681767871476   -2.27271406795604    0.49524491157692
H           0.61321954954906   -2.71895620547375    0.32572478798645
H           0.33925978200401   -1.14727660949147    1.64892612046024
