    19
        -40.91865350
S           0.31666580551819   -0.93580658791714    0.17516021145927
O           0.43301934419812   -0.89862638917121   -1.26399036061361
O           1.03946148641164    0.28618488987826    0.74567165826830
O          -1.01072115611115   -1.00796511317168    0.69793415822757
O           1.12707679244601   -2.15009379438767    0.69431883871386
H           1.92864790239878   -2.23021020548877    0.11571795593756
O          -1.79426999270154    0.67417640995182   -1.42450892611531
H          -0.96709968510917    0.20182677412794   -1.60430917902889
H          -2.31779122864745    0.06066955354373   -0.90044439596991
O           2.82429767908280   -2.06087466064609   -1.27607924102747
H           2.86083368208918   -2.83030263646355   -1.85001519714917
H           2.10017721971843   -1.49725970303746   -1.60364520379797
O          -1.49512097655768    2.72983095453261    0.29605202818309
H          -0.83737022942992    3.32453183169374   -0.06798669694102
H          -1.66785135984596    2.05190153709928   -0.39334419840081
O          -0.67656806226012    1.21580970189929    2.29706813057519
H          -1.24674957676914    0.44150715369878    2.20445184126082
H           0.43263415812367    0.72609406033201    1.47608251429906
H          -1.04927179257647    1.89860624326598    1.68186604233563
