    19
        -40.91904996
S           0.49921263596278   -0.56034650090799   -0.89340090212870
O          -0.62536033805039   -0.00197003131513   -1.56982010285562
O           1.58594679478172    0.33957619029376   -0.59877312104727
O           0.05407045964724   -1.20023224355661    0.43565419506331
O           1.04535572157283   -1.75999396039431   -1.70676013150874
H           1.84586448878300   -2.06056939910589   -1.20918735301806
O           2.92107854202522   -1.89828129021077    0.09617394070470
H           2.47938989527650   -2.16005086345792    0.90866479090985
H           2.82837444254857   -0.93428218953553    0.03109262291162
O          -1.88443589278140    1.69055352533416    1.52132321769898
H          -1.23929351571961    2.07384153113948    0.88525031580314
H          -1.48914594519370    1.77067700032170    2.39058456036675
O          -0.06720142058417    2.48349564545679   -0.29170999848060
H          -0.52387250581691    2.35792333413510   -1.12831848144424
H           0.68109228492658    1.86611532535678   -0.32096648876843
O          -2.37898114806351   -0.67201273365022    0.45956446006288
H          -2.34636450761123    0.19622000407733    0.93774442474258
H          -2.40060464107359   -0.44608362427771   -0.47923597973947
H          -0.98512537063713   -1.08457971969915    0.53212004074006
