    19
        -40.91833234
S           0.05551231534141    0.50105542363479    1.65160287520499
O           0.41885589056572   -0.91155193612449    1.45895537106715
O           1.21902841870597    1.34291357735625    1.77807663426462
O          -0.89991103344666    0.93905304148873    0.65313193419199
O          -0.70593450795757    0.55960542264792    3.03963741592113
H          -0.00136250968689    0.50413261934393    3.67800049104920
O           1.28930906499977   -0.54882160772428   -2.09985800425841
H           1.30948098127715    0.34362823324838   -1.65449762350831
H           2.19948354330417   -0.84900148186100   -2.13177243247927
O          -2.41729704155256   -0.63559683871612   -0.73563213922599
H          -2.63892155258745   -0.15343404996983   -1.53494998597236
H          -1.98791740286075    0.01630717107851   -0.12434935201296
O           1.30432672838234    1.73569024619654   -0.82205039371837
H           1.46856334983803    1.63611569941253    0.13983842021921
H           0.41200295068063    2.09114557974801   -0.86524271179234
O          -0.25071476534491   -1.96138482380166   -0.65630922480066
H           0.04451047243935   -1.58491855733748    0.30915999648279
H          -1.18884837594418   -1.56726170995694   -0.77740287388920
H           0.36983344392320   -1.45767597860470   -1.30633841673212
