    19
        -40.91437225
S          -0.83127795096157    0.56786350238942   -0.19481716444151
O           0.52164305925335    1.08878874182793    0.07577682970700
O          -0.80463383001065   -0.40766851046537   -1.27236674846183
O          -1.42286517911314    0.06158188924081    1.03485769310765
O          -1.71379900865931    1.76712361032083   -0.65618000136772
H          -1.53351232792915    1.89722845105228   -1.61371756136485
O           1.47036913968329   -1.54376374439119   -0.46512701138902
H           2.05388232109950   -0.81125274402294   -0.68097166897974
H           0.59615229343753   -1.27746501579992   -0.81336266767046
O          -1.12752375945382    1.37497361471050   -3.19799349533242
H          -0.88924051790004    0.54668833781151   -2.73860168129301
H          -1.86932977889496    1.16718509685634   -3.77104293084656
O           1.43930712278918   -1.76246823812825    2.15541050842148
H           1.52216490436124   -1.76227201463727    1.16396344030989
H           0.78530409639896   -2.43128219934624    2.36946295062184
O           0.51963854100818    0.57239161660689    2.45708810406160
H           0.75239566613764    0.95679451776119    1.49162145049374
H          -0.44925903833781    0.35598992771759    2.18357798412568
H           0.98058423739660   -0.36043684944344    2.47242196045996
