    19
        -40.91892668
S          -0.19901800212666    1.01501205483182   -0.99318341327194
O           0.65761291848467   -0.15129997969029   -1.27890589821494
O          -1.53502239034621    0.82697724498244   -1.51632479494362
O          -0.14287498079598    1.36717766381078    0.40391707936765
O           0.44775795128214    2.21626245860834   -1.79302669810711
H           0.16394726709852    2.08422115387127   -2.69282026878559
O           2.45917347816406    0.71337260428462    0.71499432047919
H           2.56610252819369    0.22385066584850   -0.10585493711113
H           1.66057616843112    1.25026712891515    0.57927488340511
O          -2.46102656070602   -1.10385346925455   -0.04519381498579
H          -3.07481588587103   -1.61150182377112   -0.58060048120393
H          -2.22042594763795   -0.30402580693973   -0.57944003010045
O          -0.07086113095035   -1.86555747148196    0.35930035792834
H           0.31558334301154   -1.23588182016379   -0.38960882052029
H          -1.07932161260808   -1.70828009623410    0.28119766045038
O           0.65446939308763   -0.46084323505116    2.29739016693748
H           1.53824605076236   -0.16499114516038    1.98152438649139
H           0.08282625748537    0.29700227729270    2.09609704844856
H           0.23707115504471   -1.38790842469767    1.26126324373465
