    19
        -40.91893409
S           1.31405177933065    0.77968717448531    0.82224141956256
O           1.11693131115139   -0.64835362385303    0.97569028103019
O           2.23945560270775    1.16062753488018   -0.21467375503564
O           0.02671462696506    1.48078684370490    0.70043505180681
O           1.94076548725780    1.28224926388029    2.19096721244588
H           2.39182458371566    2.08179141058813    1.93775276053793
O           1.10601950600082   -0.61496303088506   -1.80267834121808
H           1.18155468292351   -1.33834060165000   -1.17316120580567
H           1.60535547982470    0.11721020611192   -1.38671599080829
O          -1.15974026158263   -1.83801644919395    1.31351220761615
H          -0.23374967424963   -1.49579617213905    1.21454498240988
H          -1.30509690449660   -1.95429177113860    2.25423324134300
O          -1.40746475806510   -0.03648414200924   -2.26812117030962
H          -0.45557286016004   -0.31153843030944   -2.17293786177268
H          -1.39897762484392    0.78747839261699   -2.75903224514572
O          -2.03479613153565    0.24927552613137    0.16449666861602
H          -1.18716783740150    0.84162352651239    0.44033035244978
H          -1.89570408947909    0.10821087232004   -0.85261148948696
H          -1.84440291808886   -0.65115654005931    0.61572789178147
