    19
        -40.90719767
S           1.66925388762037   -0.51403793606989   -0.40139071836241
O           1.89275780886162   -1.33202750043040    0.74354535345983
O           1.07739931227172   -1.11936245388649   -1.55718809791272
O           0.88315310350125    0.74148672338220   -0.02737053088748
O           3.05430617709796    0.09561458492568   -0.83267352752983
H           2.93856769572472    0.48408282665965   -1.69800215390948
O          -1.18629491828963    0.21647962591385   -2.29108411322805
H          -1.83234452281040   -0.46902955213212   -2.47313035709173
H          -0.36433039610789   -0.25464759289893   -2.06443102090717
O          -2.21232255326353    1.83079208318319   -0.31787006537817
H          -1.91998880120096    1.33886743850411   -1.11203167101531
H          -1.59409253293927    2.55772865742240   -0.22423288834569
O           0.32204927701796   -0.89102763828339    2.93351221433598
H           0.24650441002079   -1.72432824245496    3.40253928262024
H           0.99987781578293   -1.03427012565042    2.24682216675291
O          -1.18796116861974   -0.29872997877390    0.83893783007137
H          -0.92693593780131   -0.41433925103148    1.77710873918479
H          -1.82263965964379    0.44344563061719    0.73174284116575
H          -0.03695899726541    0.34330270099928    0.32519670698987
