    19
        -40.91792400
S           0.92883114473844   -1.19788657055031   -0.74880694636938
O          -0.05271974795578   -0.75265173464351   -1.72381157094629
O           2.02308662488090   -0.25356510043203   -0.60474904023133
O           0.31708534108797   -1.54044025958986    0.52665046083552
O           1.56065882316264   -2.54015454876508   -1.30319761707653
H           2.08718346290791   -2.23169822912273   -2.03401649150127
O          -0.88656740748288    1.67894941668382    0.96320270178529
H          -0.78275725602380    1.82162706651582   -0.06901386875438
H          -1.45910150999405    0.82761600030380    1.03644901507419
O          -2.02858502685152   -0.58301840137258    0.96636594592953
H          -1.19380941755273   -1.05939330050612    0.70156694853301
H          -2.34679556783795   -1.01725815907852    1.76013297420734
O          -0.63392780497312    1.73190484561347   -1.53359000863878
H          -1.45702032575785    1.82286832441171   -2.01920993409878
H          -0.33973540740735    0.78446865587442   -1.67365719565437
O           1.33356690411534    0.74116378020898    1.65318867917790
H           0.07420624986165    1.38666409622928    1.30249720888851
H           1.10908287992120   -0.12175589382049    2.02155988865115
H           1.74731806114947    0.50256000193845    0.77843886022922
