    19
        -40.92453830
S           0.49378123810110   -1.43790168367450    0.10422373312690
O          -0.04910946772506   -1.26843989591493   -1.23860331527234
O           1.64111774754526   -0.56135234505888    0.31331524064507
O          -0.51411465549569   -1.28888309542245    1.13286876960479
O           1.02313639393501   -2.92251754167050    0.20857171774292
H           1.68943273447459   -2.99402662595121   -0.46874469665561
O           0.20606262963065    1.03200519892452    2.04936508098386
H          -0.13812155653825    0.11640946207351    1.90588588205216
H           1.15231176210202    0.94550844240871    1.88344705670045
O          -0.78978386200967    2.02422145115525   -0.04305839092068
H          -0.41034901263658    1.74861360651307    0.89243884231746
H          -0.00237108564855    1.84034590022143   -0.70607108610889
O           1.10209058359369    1.21454234943161   -1.49610887897047
H           0.69875584274445    0.62226186234331   -2.14166698899473
H           1.48794503035463    0.59713416624466   -0.82372340457140
O          -2.21227328808524    0.01243707993520   -0.57452933791861
H          -2.38762866933938   -0.43533990211119    0.26126174529725
H          -1.49658596727385    1.28755001134532   -0.27528195211945
H          -1.49429638773480   -0.53256845072939   -0.98359003688533
