    19
        -40.91790583
S          -0.33623972754938    0.90934144098688    0.34050193465583
O          -1.48970404856871    0.41433016027967   -0.51225168675557
O          -0.53443931832199    0.53831536918608    1.71209003615437
O           0.92402206699237    0.49292857322125   -0.21969013808344
O          -0.46058805999856    2.45836328221798    0.19698338324149
H           0.25785521986516    2.81465200014270    0.76050407138476
O           1.60917667688315    2.32141830558824    1.80723670137834
H           1.11904517955990    1.76603822477337    2.42438196572054
H           2.05972323699147    1.71793197714663    1.20598627807463
O          -0.96853378389681   -2.06959430364779    1.03217914791644
H          -0.81207082485718   -1.22086622845239    1.47451360640104
H          -1.89091931756510   -2.06705235919548    0.76763807278320
O           0.85835363957699   -2.13132010862304   -0.99238896704053
H           0.25208897120674   -2.40041070381907   -0.27757941678705
H           1.25625042659140   -1.30797948213943   -0.67156565905907
O          -0.61500357523378   -0.70255657956413   -2.56321675389787
H          -0.06586349649230   -1.39959875143107   -2.08501397479579
H          -1.17875926763894   -0.02630418949184   -1.42323984136895
H           0.01560599868458   -0.10763661914561   -2.97706877129067
