    19
        -40.92217239
S          -1.22056979558817   -0.61432771506933   -0.20173007808565
O          -1.11636683389755    0.64681122806709    0.54380785226444
O          -2.07984916556368   -0.52269230429243   -1.34704418487842
O           0.09311154306103   -1.18494946038155   -0.44110557449325
O          -1.91517977598192   -1.63374533076278    0.81670853096301
H          -2.83912472660150   -1.61333262047785    0.58542607205378
O          -0.47380105571653    1.51058867189170   -2.07365813863590
H          -1.08414586533304    0.75492466805358   -2.00871176174788
H          -0.87924687337552    2.21125233553524   -1.55730795193440
O           1.15701422930255   -1.35231405309370    1.94068681916322
H           0.79512519444310   -1.51075775502462    1.03848822582082
H           0.47047384698235   -1.62348071475392    2.55319812512197
O           1.89159766467619    0.67193369101905   -1.15638755845925
H           1.19332651980215    1.14846435317307   -1.65762551140276
H           1.55607651110414   -0.24149424049284   -1.12871388285814
O           1.22157554115604    1.10167349979464    1.21081069795566
H           0.19153925737800    1.02864480110453    0.98888625650061
H           1.39003209007814    0.20758944693084    1.66031459380538
H           1.64841170396526    1.01521147871089    0.23395746893392
