    19
        -40.91905000
S          -0.88449810871951   -0.38760278935597    0.65527819882250
O           0.20695240377299   -0.92009481644376    1.40294017235230
O          -1.13882287051302    1.02355946784085    0.80253252558290
O          -0.68492904909852   -0.66825560684796   -0.84656382349288
O          -2.17579407335377   -1.17024866596758    1.00024391893429
H          -2.89098787485866   -0.71775813551754    0.48779730148894
O           2.75202230730047    0.53877565490443   -0.91917241347580
H           2.64280800826885    1.13316910337761   -1.66282031984577
H           2.36682433421663    0.99581776212190   -0.13791676799476
O           1.49109263330669    1.61682106301766    1.19410711050736
H           1.62399857696044    0.96303503130053    1.88622908195334
H           0.53173976384273    1.63420663528371    1.04808446536262
O          -3.39732030218226    0.50475921080062   -0.57754278474467
H          -2.75941839190444    1.10766539281490   -0.16310500724463
H          -3.06228935717246    0.31786082139095   -1.45880132844111
O           1.53345741322664   -1.79883927550431   -0.85827233932064
H           0.21189589441381   -1.19987024168820   -0.97209051199443
H           2.11361038351832   -1.00269015424785   -0.97302417686690
H           1.51965829898086   -1.97031044723289    0.09209671836964
