    19
        -40.92217241
S          -0.66937546131367   -0.89261810994216    0.81383023707614
O          -1.25502370016190    0.40956742474359    0.46949737866046
O          -1.49270199607349   -2.00143994679249    0.42511264500087
O           0.72074966150129   -0.96168846620717    0.39989614327149
O          -0.60723743753533   -0.90129009173541    2.41243180542162
H          -1.39160120223451   -1.36961098248726    2.68244258847761
O          -1.35715384654716   -0.91224770595515   -2.03237592613165
H          -2.06199938321411   -0.26563227195190   -1.94854823691559
H          -1.42934596896517   -1.47816069162714   -1.24359204450723
O           1.11387880605298    0.10538344329245   -2.03059342273585
H           1.35764781168306   -0.48839350817130   -1.29890131047607
H           0.24177964033713   -0.24491170422233   -2.31795444418898
O           1.82362370634943    1.11854635796645    1.53451946913313
H           1.56492074536735    0.22120032452284    1.22165962998732
H           1.44500647422372    1.21347873271342    2.41066324152104
O           0.45043501180811    1.93651553597232   -0.46642233575428
H           1.11914608260135    1.84176825278020    0.29106101041956
H           0.79627452014672    1.28079145467729   -1.23651789736335
H          -0.36902346398429    1.38874196238201   -0.08620853090404
