    19
        -40.91476098
S           0.37237564872293   -1.09694058428105    0.43441486899977
O          -0.97850369976893   -1.49572372322850    0.09981435222300
O           0.97277571092400   -0.31453963637871   -0.66619792105630
O           0.48009700908176   -0.36075785472647    1.68700049031070
O           1.24291730471400   -2.38478964454810    0.59826859006649
H           1.16037790176580   -2.84873541221127   -0.26015081534191
O           0.42793417802634   -2.75410270231588   -1.89165423314114
H           0.78537730455393   -1.87475346576294   -2.06565535795848
H          -0.44246608391349   -2.59982643271674   -1.50029128758297
O          -0.58676096817678    2.91025987137412    0.50795176067213
H          -1.18820625829759    2.17892254228707    0.21209780524468
H          -0.93193317488167    3.21115827203743    1.35158448140124
O          -2.11970531684030    0.87763577480259   -0.16328768721324
H          -2.48123162702804    0.84191643179906   -1.05129881046968
H          -1.76300067284705   -0.01845561839947    0.01933413706741
O           1.56963776443555    1.61373135334774    0.73204844486693
H           1.49718873986655    0.95728259266370   -0.07429307522416
H           0.76050259509190    2.26086875186564    0.62223271610066
H           1.22262366458109    0.89684948440465    1.40808154103486
