    19
        -40.91167212
S           0.11275715473796   -0.94039006523884   -1.24606095880678
O           1.16964446230768   -0.63148370540976   -2.15464901452948
O           0.47526011286490   -1.50319889112077    0.01738400521073
O          -0.77826521114975    0.29118765955067   -1.06506673926861
O          -0.86488667734590   -1.96481112282792   -1.92426720415541
H          -0.94573923091454   -1.73546340691627   -2.84808755919205
O          -0.94663303310482    1.24726589418838    1.83940865422623
H          -1.41247477003581    1.48805673158917    1.03545723334437
H          -1.20968567440053    0.32403045669320    2.02536062757390
O          -1.38538124669638   -1.43106717963271    1.97799469312128
H          -0.75870454988516   -1.57462916477523    1.24698572549533
H          -1.05356726041796   -1.93515497879792    2.72355936917715
O           1.56417219320170    0.90321050811713    0.97346754603238
H           0.73965879328183    1.14234766402534    1.45722988700994
H           1.48513025541608   -0.04119505183240    0.79239688417220
O           1.00842411434901    1.98458551032353   -1.31066984295939
H           1.38089300564261    1.77113262222237   -0.40540842839449
H           1.54518794742221    1.48429095398529   -1.93808987658973
H          -0.12579038527832    1.12128555585365   -1.19694501148353
