    19
        -40.92135413
S          -0.18992637654744    0.66456167267986    1.39969887710366
O           1.00912557547708    1.39355539242362    0.98429809326860
O          -1.38994182878502    1.21026077755531    0.80448081708793
O          -0.04384643746622   -0.76671583602298    1.18699718056703
O          -0.31038568036105    0.86131204066260    2.96071557807222
H          -0.50568266406702    1.78964878327588    3.04297788932714
O          -1.68972617292027   -1.66425716227752   -0.74262998971314
H          -2.58886303282088   -1.70019421610936   -0.41178104508599
H          -1.12283608559044   -1.46540395623645    0.02799490928931
O           1.89967486990406   -1.49928700769419   -0.45130774409840
H           1.18639260330387   -1.37843817020687    0.21603914176977
H           2.71780698368611   -1.60169418404577    0.03843453652456
O          -1.06186377310883    0.69955609508021   -1.74414949318521
H          -1.32018127351804   -0.24918631377617   -1.65823352231152
H          -1.31842549256910    1.07911789659071   -0.87058264342711
O           1.38725130699111    0.81098815938986   -1.40694222201988
H           0.33464292952310    0.77024309198651   -1.69916259309828
H           1.32609688710093    1.19405772033291   -0.44326331627944
H           1.68068764178830   -0.14812480362283   -1.23358443377643
