    19
        -40.92159001
S          -0.99202719666706   -1.07348971005403   -0.20663859528667
O          -2.22833329769637   -1.02829549458795    0.52556100225065
O          -0.88166008314213    0.01548131420228   -1.18620907394159
O           0.20864921413464   -1.14833335540469    0.61212233994402
O          -0.99948052460351   -2.41782335392848   -1.04566270154987
H          -1.91160988227987   -2.53271928170265   -1.29433965775348
O           2.47160606292671   -0.95351771117734   -0.69013910111261
H           3.19649184152345   -1.08439003891710   -0.07551922684289
H           1.65106076747244   -1.24222849763719   -0.22516253530265
O           0.69386548321670    1.32825457978583    1.47713412028608
H           0.61397229836318    0.35406224073021    1.49169349261202
H          -0.24412365797043    1.63403096007701    1.48693222854219
O          -1.89748364340473    1.56701920869823    1.02305783909464
H          -2.15315969950675    0.62501266849501    0.97736877137716
H          -2.09107343241875    1.92497238651894    0.15355103983684
O           1.23998287104034    1.27237294997028   -0.95175136984663
H           0.32564564600152    0.79985948187924   -1.18289504425985
H           1.09953643307355    1.45998037126596    0.09386015623810
H           1.89814081992352    0.49975130179456   -0.98296367430254
