    19
        -40.92453853
S          -0.15466564227682   -1.33602788528968   -0.71646445821469
O          -0.78456117527197   -0.32461488590920   -1.55729022588547
O           1.27347749258999   -1.07466261727225   -0.57364341529054
O          -0.82101657857731   -1.49047276442381    0.55960367202116
O          -0.29824403043465   -2.71887933910760   -1.46613526216187
H           0.14361578687490   -2.59350695482523   -2.30093313336185
O           0.95666366708643   -0.34575358733955    2.06774096577841
H           1.73480975803677   -0.58968403521260    1.55249847248730
H           0.23730044379344   -0.89841378482376    1.67460929551993
O           1.25557557620658    1.46270192028220   -1.10176955409110
H           1.44490708700032    0.50116559136320   -0.95384694203032
H           0.54037168672576    1.45568089718704   -1.74873644245894
O           0.15119497911694    1.85060216974091    1.12926752101606
H           0.66634093776380    1.84237750091130    0.21961462000011
H           0.52416758609757    1.02002403554341    1.64556598897874
O          -2.05710235990995    0.94018634131322    0.32466709216025
H          -1.71617251674128    0.52718434388898   -0.50779377037582
H          -2.26752458665287    0.18256127138276    0.88286433325440
H          -0.82913811000685    1.58953177303474    0.87018127291665
