    19
        -40.91285597
S           1.09883523553408    1.31036935941831    0.07730859044767
O           0.11753811671228    2.35410180490444    0.17615629815839
O           1.24087532269064    0.52983321081812    1.31339032025269
O           0.94164459871665    0.42428021506087   -1.07076825635849
O           2.50190501316613    2.01691968925906   -0.15118004323732
H           2.51083474346844    2.76171615345673    0.44352287748236
O          -2.33724518470888    1.36010786262179    0.54463019440665
H          -2.95698165981466    2.03294375646360    0.25659991936109
H          -1.45185766115683    1.77461124967448    0.50997060466529
O          -1.56501485475530   -0.65749466897531   -1.04275100772419
H          -2.02706600073181   -0.02306953862334   -0.45512977251550
H          -0.73093818223176   -0.21432347819178   -1.27293530667452
O          -0.67114455348685   -2.68754225386911    0.26727538797327
H          -0.79169124662503   -3.46531762830571   -0.28101502721467
H          -1.14355483497418   -1.92858620096693   -0.20170018031685
O           1.59336258932543   -1.61395344810695    0.23077798738711
H           1.50896721943369   -0.79274996917329    0.92155310995633
H           0.68722471981426   -2.15363412583597    0.31472110756724
H           1.47430660953043   -1.02821199951165   -0.58042680346035
