    19
        -40.92135361
S          -0.01621610858581    0.52657202022557    1.46958254954818
O          -1.19511038988113   -0.30300894677476    1.58716213343689
O           1.21672926788157   -0.25877342672075    1.54335087065785
O          -0.03296656743831    1.38350478385262    0.29461166472780
O           0.00172690574338    1.49641177913443    2.71423182331597
H          -0.07325641393676    0.89749706819688    3.45073429455864
O           1.35296026623950   -1.54488861226194   -0.58418600380653
H           0.28323340776302   -1.74405006757615   -0.68587816676298
H           1.40315552180859   -1.12839760075806    0.36651412645155
O          -1.90365023792162    0.60940977626424   -1.47806266503845
H          -1.26287135186761    1.02895876780546   -0.87139604927364
H          -2.77410283392599    0.85160569632616   -1.15729271977776
O          -1.11320620686317   -1.75261520514482   -0.59348282226004
H          -1.45979910606467   -1.02983929922967   -1.16934389789051
H          -1.26370273625072   -1.40238650026327    0.31629512879710
O           1.69511141978636    0.76640255005739   -1.61105238876546
H           2.53268869747483    1.20300924760787   -1.44534666200543
H           1.55884929256703   -0.74301023275522   -1.17630160442606
H           1.05042717347182    1.14359820201359   -0.97013962148759
