    19
        -40.91792408
S          -0.17799845040258    0.52644643709703   -1.59625586610285
O          -1.26049889814264   -0.44059061041065   -1.65270085576530
O          -0.49996024029789    1.65812930102150   -0.74320346523325
O           1.09502643529996   -0.08271267131728   -1.24071317610951
O           0.00325932010426    1.08723063514945   -3.06633517646205
H          -0.88940095351007    1.30913177900400   -3.31235513666898
O           1.99186744840858    0.42411054795025    1.11592853121426
H           2.88927805167138    0.08633711043908    1.13607452523826
H           1.69496677959800    0.37514437357338    0.16567924579535
O          -1.62839339083566    0.99022023736859    1.45412648530960
H          -1.27525479302164    1.26280964518339    0.55708180084681
H          -1.53085690653587    1.76175311933013    2.01697162359178
O          -0.20862245232858   -2.23451142181638   -0.15752861847714
H          -0.78511895632958   -1.66037986103147   -0.73345324925288
H           0.65964811263637   -2.13671705018528   -0.56666309514448
O          -0.02119470655555   -0.87573698170923    1.94041082060921
H           0.85347050747152   -0.37377077158920    1.73865474682366
H          -0.76072305839571   -0.14339037574363    1.82567542194721
H          -0.14949384883691   -1.53350343231316    1.11860542783897
