    19
        -40.91209437
S           0.18848365446929    1.01485690233981    1.64463278186769
O           1.42552443895150    0.38340089954332    1.01993866576366
O           0.05778392614721    2.36872753033866    1.21355610883577
O          -0.93981918857447    0.14695811692779    1.48465711190122
O           0.52496312338233    1.04062252189039    3.19049486789944
H           1.04071358636382    1.82531621292482    3.36735119271024
O           0.47457505038131   -2.21014910805100   -1.69362309848905
H           1.33151650371853   -2.35341880898593   -2.09907467577563
H           0.16073691912954   -1.33665518412030   -2.02676889564417
O          -1.65643557067629    1.53578097792249   -0.75946738043108
H          -1.81132457628799    0.89515135868006   -0.05278815429655
H          -1.11067586505435    2.21548843389863   -0.34269385022600
O          -0.31328723258226    0.16008843255790   -2.62528542191639
H          -0.89543860006906    0.13077940530803   -3.38676441049520
H          -0.78040669109046    0.70625605732157   -1.95336935609346
O           0.67829023436683   -1.97335158499388    0.90805195958175
H          -0.20712039158918   -1.73086213238630    1.21204193211829
H           0.59303842332518   -2.15989817441655   -0.06902288620104
H           1.23888224571462   -0.65909186669071    0.96813350888514
