    19
        -40.92161568
S          -0.62320031982656    0.77129696835329   -0.39274271845575
O           0.08134705834530    0.22267552933777   -1.51162822500580
O          -1.80717344222445    0.04283805151960    0.00043332720099
O           0.29574074971111    0.90552237380798    0.82159137903116
O          -0.99916316499288    2.23678140841120   -0.69429608102250
H          -1.52918012773881    2.51864243151562    0.09372925053865
O          -2.25773995363415    2.18209407556337    1.57892633456364
H          -2.45603478601850    1.28444128240636    1.26679034712879
H          -1.57036002674733    2.09463332202462    2.24533022199155
O           2.63096357363019   -0.64723452285562   -1.34478438059516
H           1.76555527335888   -0.24028748089079   -1.53315714346527
H           2.95137368249134   -1.01385103852662   -2.17027340823011
O          -0.50907752616443   -2.31942802219173   -0.20858348837536
H          -0.31510779082997   -2.29220584233876   -1.14886108922288
H          -1.17291032423548   -1.62472357333197   -0.06280854059255
O           1.56355091400157   -1.20910772464198    1.04485891814318
H           0.86364981486920   -1.81935166551397    0.71212199764157
H           2.20053492130330   -1.11041304869118    0.30828596170625
H           0.88723149465036    0.01767748642186    0.99506734700997
