    19
        -40.91437251
S           0.88216514818583    0.11465828865878    0.50512077442135
O           0.19103887082685    1.37890782360398    0.69893048699725
O          -0.04290235850732   -1.02130080756246    0.65562537361808
O           1.57691069961430    0.02364046139071   -0.77249798010988
O           1.97129023341234   -0.01067712527725    1.61349965543211
H           1.58592880756391    0.37314359602812    2.43216771973442
O          -1.29470460864045   -0.72794487383652   -2.76196890976194
H          -0.90192214006685   -0.09504627648781   -3.36698916104979
H          -1.65520322962763   -0.19802598891421   -2.00069386989932
O          -2.00116525204524    0.61149288617235   -0.61271561916948
H          -1.23243225379136    1.04320085308032   -0.18941106921016
H          -2.30692905220637   -0.03149354701469    0.03287034641173
O           0.58078919123544    1.45218032394832    3.31290038262584
H           0.19726107267371    1.62899154847934    2.43227216247941
H           0.99635967279181    2.26859357941240    3.60023465003765
O           0.46400138213262   -2.03726737553207   -1.50654959846658
H           1.15614816194303   -1.26975564007268   -1.43683628734468
H           0.11462424952096   -1.86900898391314   -0.52395182713799
H          -0.28125859507908   -1.63428875216552   -2.11200720958117
