    19
        -40.92044499
S          -0.02684402762515    1.43123192448805   -0.70892536316244
O          -0.91477886215888    1.53175493405098    0.44596985906157
O           1.36940523158895    1.45518428784229   -0.31763871295669
O          -0.37239809255094    0.28914780001637   -1.53899321561153
O          -0.25857156053558    2.71838033830524   -1.60117888267135
H           0.37955469278789    3.33883847662469   -1.26218757324386
O           1.15852944829693   -1.75481738479130   -1.14515198178079
H           0.68963639804139   -0.91569697115525   -1.39449357750532
H           0.98247498889062   -2.38807876656428   -1.84363442645977
O           0.08666212471341   -1.82290386859242    1.14999054506133
H           0.59383480234851   -1.93318798932813    0.26372802471791
H          -0.87165479729507   -1.49190306855275    0.87357683528297
O          -2.05539700774331   -0.77840939324070    0.33533078071571
H          -1.78104545044017    0.16668222777613    0.47337472145482
H          -2.04245169824997   -0.86842473960490   -0.62451798716644
O           0.98607324345773    0.36006582686157    1.99326074387441
H           1.36376054585991    0.75285671456318    1.16518105139549
H           0.18601068096404    0.88511203348689    2.13069996623085
H           0.52719932957637   -0.97583238206428    1.60560918271065
