    19
        -40.91355602
S           0.95194664158629   -0.01429998178384   -1.21198398204053
O          -0.20457708591399   -0.88460338729150   -1.15151621603504
O           0.67584784970460    1.37206597918328   -1.45578634630589
O           1.81073183220805   -0.21260870671887   -0.02102366522314
O           1.80976908926279   -0.54065191793912   -2.43714066475379
H           2.45142906337936    0.13720786882856   -2.63538420447135
O          -0.56226123305452   -0.43845837459154    2.64295220014976
H          -0.68252036865952    0.33388732643789    2.02136744896641
H          -0.00109442408724   -0.12443866638743    3.35489938789544
O          -2.27805542692517    0.88260883301762   -1.20655330589617
H          -1.68244211642461    0.11980736376836   -1.29270654506008
H          -1.92611358802547    1.54910837094792   -1.80186778598851
O          -0.72469946533824    1.49999408762023    0.90460167379068
H          -1.52563354938514    1.36831695554806    0.35612689586646
H          -0.01990428769965    1.62890023403080    0.25454088155090
O           0.56929523953215   -1.99999252620446    1.02958769818386
H           0.07047916738723   -1.46065973370560    1.77618284585607
H          -0.02795440717623   -1.98759820088695    0.24320154093367
H           1.29575707962674   -1.22858551386850    0.63050215258106
