    19
        -40.91117818
S           0.47055698038122    1.72490895447369    0.14120509959481
O           1.09596279058576    0.89039421899175   -0.85240576194876
O          -0.96134250902034    1.23064353094639    0.37808779052117
O           1.14808454362453    1.90751803170611    1.37220790356527
O           0.23094210402404    3.12783317018607   -0.52542619210913
H           0.01818806785831    3.00171548457897   -1.44906387420688
O          -0.33761298983419   -2.76589962363256   -0.93354312886672
H          -0.67821097611933   -1.99086258193758   -1.42728030289333
H           0.13424649470001   -3.30834613465733   -1.56712755062688
O          -1.00729968891746   -0.36891447320889   -2.00439114113150
H          -0.16635687181612    0.04463724976110   -1.74249921428022
H          -1.66446944155841   -0.02710305167285   -1.39116829367099
O           1.07429903129271   -1.33289527078988    0.85650271403665
H           1.36944576923507   -0.63993637844326    0.25257509710594
H           0.57752470522280   -1.97831174554256    0.30533244262627
O          -0.52607028264716   -0.05349555920914    2.43691758495239
H          -0.92137805891903    0.67911489831281    1.29871542131150
H           0.07765629931070   -0.70535166058591    1.96942233204367
H           0.06583402259596    0.56435095072549    2.88193905397676
