    19
        -40.91833244
S          -0.28925348475890   -1.53634537524982    0.73302311938523
O          -0.78890260306221   -1.44999677342096   -0.64811824965164
O           0.99065678417151   -2.19643012413895    0.80121468554427
O          -0.33777470071118   -0.24575703577317    1.39143019832170
O          -1.32242936410659   -2.45842579046985    1.50241389728677
H          -1.09708216327733   -3.33487530289907    1.20554195987015
O           1.39104155486861    1.36324232436793   -1.60279798816784
H           1.76271432269669    0.90597869565240   -0.79783027581877
H           1.88071979898528    1.01906721901667   -2.35210220887132
O          -1.82792798512879    1.73981047621612    0.65066419572162
H          -1.36695128834231    0.97129644885504    1.07471427836896
H          -1.40129527170294    2.53108967798942    0.98584008399748
O           2.26752144567826    0.08482620426903    0.50659042196030
H           1.95950457258033   -0.84564760772866    0.54620199612761
H           1.86183937941631    0.49283969637294    1.27694805792593
O          -1.08510393024113    0.79724500278371   -1.58963620518838
H          -0.09989412858453    1.08905730502901   -1.66283209408930
H          -1.01693710950990   -0.21908340776771   -1.23699386014815
H          -1.48044583897205    1.29210836693490   -0.78427202261569
