    19
        -40.91436420
S           0.57821125828966   -0.24869854855247    0.81812392434992
O          -0.78596239745313   -0.46442473014636    1.27018811661408
O           0.74699056631939   -0.74033041584661   -0.56931071592607
O           1.02128386216398    1.12888722204522    0.91039554509824
O           1.52242679806458   -1.09484833753849    1.72390071592711
H           1.05069512127526   -1.93708263206807    1.91218392555914
O          -0.62362803236801    2.28156815758958   -2.04847484745130
H          -0.83725784426661    3.02621033693657   -1.48218755423022
H          -1.19169570582693    1.52702516859614   -1.73923238998091
O          -1.90259175226116    0.20029725211130   -1.06359568812600
H          -1.61610116112943   -0.56996765260216   -1.56162994812263
H          -1.62860891242399    0.02018732403808   -0.14266422782067
O          -0.33666426171764   -2.90774584678064    2.17443672992714
H          -0.80971890874385   -2.12196843809249    1.83895467466534
H          -0.60059236002492   -3.01683204367037    3.09110971841975
O           1.64875538951493    1.31233450683204   -1.48761271266066
H           1.32450243300489    0.28361971295338   -1.28622807732038
H           0.79261802509586    1.76808589840542   -1.85443665391442
H           1.64733788246615    1.55368305580069   -0.50392054498480
