    19
        -40.91907734
S          -1.21112302624497   -0.42921915606966    1.06235930481941
O          -2.48587668719088    0.11121514289299    0.65174593843732
O          -0.67769427527314   -1.43735022821788    0.17535829656411
O          -0.21745348365599    0.63918337534108    1.30048478418766
O          -1.42713564244653   -1.11765364985056    2.47140842343916
H          -2.08499719938666   -0.58545212545129    2.91125792815907
O           0.24387871199789    1.62351543356568   -0.93031709198785
H           1.13583280863669    1.15480639968581   -1.18873672568651
H           0.06367329843033    1.32616355547733    0.06575902127098
O           1.86004049204382   -1.06861393395055    0.79908266840325
H           1.54520084462832   -0.37646049332417    1.39510785434328
H           1.03188246553163   -1.50887140856220    0.52365971853847
O           2.36818689786674    0.32045126431143   -1.34709377745230
H           2.27449506637174   -0.30873332661447   -0.57356845573407
H           3.20903149906894    0.76871572986964   -1.23965762771242
O          -1.63489316399811    0.19381650930530   -1.82732748769843
H          -2.20956494778300    0.25610885545784   -1.03178935217810
H          -0.51630626476832    1.13613249588324   -1.44724032169180
H          -1.26717740375545   -0.69775442943481   -1.77049309819121
