    19
        -40.91907711
S           0.96554838764119    0.75453043936195   -1.13048430629061
O          -0.34571678377662    1.25656883363406   -0.66763854273705
O           2.05753644766044    1.46015747810828   -0.50176563431909
O           1.03597483809646   -0.68345578304129   -1.00871399692893
O           1.01838975725042    1.09347573102633   -2.67593554921820
H           1.33613178848944    1.99138546364399   -2.72403594053647
O          -0.50458434138703    0.59444443448986    1.71873347556948
H          -1.09861863213271   -0.25751528749379    1.66321417365035
H          -0.50303706082112    0.98430122593396    0.73847365785532
O          -1.91134540918404   -1.46547069479247    1.31508807188104
H          -1.82328007664588   -1.47474577993669    0.31744097789686
H          -2.84918794523286   -1.42387881882418    1.51046112621890
O          -1.55564710394673   -1.12636353487302   -1.24455524068865
H          -0.58901647185555   -1.25891063567551   -1.30127605512871
H          -1.64338621836601   -0.16661855704394   -1.31460795686903
O           1.89908997956841   -0.16212650144626    1.55285028701823
H           2.19672488678112    0.54937400898240    0.94290762200406
H           0.47880214665400    0.27251268376110    1.82973271679791
H           1.83562181117613   -0.93766471582768    0.98011111378077
