    19
        -40.92217276
S           0.73509122124346   -1.16484910346111   -0.09637432048909
O           1.38292316067941   -1.70763828166825   -1.25581297806862
O           1.34549059750669    0.08534537237471    0.37370054288852
O          -0.70900003969763   -1.03664868048922   -0.18138167375999
O           0.97114137585492   -2.20700063496738    1.09395434015947
H           1.74653123270635   -2.69653734857284    0.83569626364847
O          -1.41579137197055   -0.24339653608359    2.20713315750507
H          -1.29068984851032   -0.71161501006951    1.34976358118212
H          -0.87510846618836   -0.71121453774959    2.84649252935213
O           0.88596158574879    0.69832972304277   -2.35298565164948
H           1.05785010049796   -0.23697869813745   -2.14422480994111
H           1.64236789270285    1.17993806251563   -2.00973543476896
O          -1.45681646683500    1.31644768957440   -1.22663434106205
H          -0.68337734570377    1.29096098076562   -1.83232319790341
H          -1.60096683657730    0.37684143181983   -1.01603691346667
O          -0.37773783623110    1.75210318795543    0.98276959088321
H           0.45213434580280    1.13902037724280    0.75803811740746
H          -0.90975713865788    1.72459611178468    0.05512943626369
H          -0.90024615238327    1.15229589410379    1.61283177181820
