    19
        -40.92079106
S          -0.63887024051234   -0.45003464368648   -1.26449867665871
O          -0.61320159701611   -1.46656799727847   -0.21093575205275
O          -1.92596230830227    0.18395893934040   -1.38940195908868
O           0.47403598802748    0.47873227045973   -1.12356309698391
O          -0.36193310190397   -1.22102933328061   -2.61856385681888
H          -1.15689815530662   -1.72853966957987   -2.74882429721612
O           0.26856063092999    1.43396889976945    1.35688057201666
H          -0.71262170581652    1.42530072703116    1.45463940152143
H           0.40781540406934    1.37349990438422    0.39006445914435
O           2.71763814923348   -0.56895429882301   -0.25793502970560
H           1.95725200128583   -0.20667977531090   -0.77127278262698
H           3.37762707810767    0.12626004912751   -0.21955748770733
O          -2.33057847545704    1.12601046073504    1.04632538688408
H          -2.99116014839939    1.81898864169401    0.98825836036766
H          -2.27302825639832    0.72760704186949    0.15078346772227
O           0.99325396686379   -0.93856735282188    1.59684530300072
H           0.70812502032804    0.08549455241012    1.68523988051237
H           0.27058598968827   -1.28719452516867    0.91362511143558
H           1.82935977057946   -0.91225389087176    1.02189098626572
