    19
        -40.91373478
S          -0.67564961363314    0.73476185168214    1.33677737473214
O           0.24759025880028    1.52883741218342    0.57078587036316
O          -2.10499463783378    0.97235518987737    0.87432836461426
O          -0.38750682757107   -0.65929787508612    1.41856171570487
O          -0.69353495204523    1.31481637319522    2.79590391067162
H          -0.79572098466038    2.26369881663874    2.74204967546026
O          -0.29423495587316    0.28447346019780   -1.86580233255950
H          -0.03417132335227    0.90911681167515   -1.17553541222968
H           0.46181975668704   -0.33577353481272   -1.97021034975989
O           2.24779186918826   -0.37130293845618    0.69547304735838
H           1.87377273121095    0.51377454484671    0.58858087153883
H           1.55256790344377   -0.86674709217499    1.14729290000095
O           1.87661223154976   -1.29380757966457   -1.80695310553355
H           2.13161451414280   -1.05757628042248   -0.88794708659353
H           2.63645641900604   -1.10350631941755   -2.35905611035296
O          -2.28244634624988   -0.90639776737084   -0.72332882547616
H          -2.33373850868515    0.19114171070261    0.18666090249191
H          -1.59362281010511   -0.52286407311654   -1.34544924908652
H          -1.83260471400986   -1.59570271045905   -0.22213217133797
