    19
        -40.92315432
S          -1.35177711227825   -0.47535935028762    0.91093308368441
O          -2.09165059337340    0.15694110455789   -0.18441410086001
O          -0.35793052030525   -1.40699017337738    0.37417502092351
O          -0.76944423553043    0.46135077442901    1.83375180566584
O          -2.41579531827991   -1.33322317200376    1.69308695510510
H          -2.97124625868502   -1.66288139821641    0.99356622988886
O           0.75557933586241   -0.88107931067519   -1.97703436267569
H           1.67442686001639   -0.84135808887657   -1.69117508126709
H           0.27100603885601   -1.27887300020591   -1.22058647608546
O           2.11537600064485   -0.46314759868122    0.59387592836115
H           2.53520882313496   -0.65486737411050    1.43362807057183
H           1.22795468739793   -0.88454020569592    0.63140278609925
O           0.90674783714457    1.92313321436668    0.44139223774170
H           0.25367642015635    1.60957575720045    1.10763243167372
H           1.59430113006373    1.22304926469473    0.45405011163922
O          -0.41624308202070    1.34105372682229   -1.58916941017974
H           0.18248954753612    1.72896408089635   -0.79257205480990
H           0.08723202123478    0.51157866116509   -1.93071060372631
H          -1.22991157167394    0.92667306802863   -1.08183257178754
