    19
        -40.91451141
S           0.82548779576241   -0.72673468934384   -1.08514064110361
O           1.92628622434562   -0.97728651420648   -0.20918942584405
O          -0.36907777073152   -1.57320836493217   -0.68471007811380
O           0.43441457409856    0.63472735481254   -1.28822451143028
O           1.22079478265911   -1.29483170678342   -2.50604386543746
H           1.71651680031408   -2.10160049446938   -2.37871813925912
O           0.35982105934696    0.06286437842843    1.85441543499156
H           0.86316388405422   -0.60109125405463    1.37147093648417
H           0.83300913966211    0.90121733460786    1.68554746259095
O          -2.26739791111229    0.45961596320138    1.55722934932473
H          -1.30311747685420    0.35653044263148    1.72622399724544
H          -2.70687974234898   -0.17721425137640    2.12313937731462
O           1.90309771361547    1.93069600103471    0.63743527999151
H           1.38280193737115    1.71327320531263   -0.15074972120085
H           2.69960051966495    1.39730367152964    0.58002550920650
O          -2.22316191678330    0.01635662883780   -1.00300748528609
H          -1.64767436124243    0.71783361448320   -1.33734236235239
H          -1.25328807892889   -0.98099575923703   -0.84946696845938
H          -2.39439716289368    0.24254442952200   -0.04289415865150
