    19
        -40.91355599
S           0.64443908130957   -0.02684346393481    1.40163404454960
O          -0.61189235526934   -0.41416869329169    1.97586482148786
O           1.28143748351133   -1.13247866023616    0.64999341607099
O           0.62253494825024    1.18161021145154    0.60211383477754
O           1.63003756362371    0.28402128505224    2.60391870750087
H           1.49476306269099   -0.40043105694077    3.25480675740356
O          -2.03511688053484    1.75663354403738    0.43736785884434
H          -2.33308994940103    1.49850722667714    1.31300394579381
H          -1.06470755261438    1.76850135538426    0.48764513026069
O          -1.66804254549186   -0.72642590748810   -0.53750057677420
H          -1.31328943748230   -0.93798747249319    0.33767420070761
H          -2.02844506814421    0.17802038835658   -0.42960504162904
O          -0.10482297035307   -0.76340122341602   -2.62361093175816
H          -0.03557229347187   -1.67943681942881   -2.90026852373015
H          -0.76482179025807   -0.74765532442406   -1.87360703373054
O           1.88445336543532    0.08883004875242   -1.34668574144184
H           1.74213739094694   -0.59658215996422   -0.46220250498400
H           1.12147148763825   -0.22950006142696   -1.99202287652417
H           1.53852645961328    0.89878676335040   -0.89851949683296
