    19
        -40.91990161
S           1.45710936184064   -0.06661543836255   -0.40268093507688
O           0.77070810443482    1.17723181240913    0.01430968681256
O           0.63857298693360   -1.21707416622263   -0.05286567842647
O           1.85393979858198   -0.03451211568398   -1.77978244887604
O           2.75443091880584   -0.15084438771262    0.49083265790421
H           2.45539037912571   -0.46243287992297    1.34242456308770
O          -1.68661472696951   -0.80322361022656    1.06366792181622
H          -0.86443557964758   -1.22614547357475    0.72163345028503
H          -1.36549774435805   -0.28314386292015    1.82651381627100
O          -0.06702537636067    0.81507794487816    2.49443388632294
H           0.32049892124068    1.03713829744507    1.62080955300013
H          -0.19315818361388    1.64603205137062    2.95533362982697
O          -0.55901897694156   -0.71209882828392   -2.58186001701670
H          -0.58903071099244   -1.61377761950946   -2.24820991405357
H           0.38290977661651   -0.43881125383430   -2.49021221356121
O          -1.55944240111018    0.81676150806716   -0.81765439528560
H          -1.31781174053574    0.22618049613891   -1.62815220290594
H          -1.79997742540724    0.13488636278463   -0.01409633498934
H          -0.63154739164343    1.15537118316323   -0.51444501513402
