    19
        -40.91245775
S          -0.13876000234606   -0.65979211370396    0.89399144626725
O           0.21984102936813    0.78534868330222    0.83009745556813
O          -1.51801625245363   -0.87164715397366    0.55022197481161
O           0.78767909625801   -1.42703035420473    0.06706122321529
O           0.11304223707198   -1.10055479945541    2.36825974164387
H          -0.34416314494833   -0.43419914014850    2.92335676683160
O           0.29970350806496    0.72176722725799   -2.84345942500981
H          -0.25342365988556    1.50527370219734   -2.81838637918094
H          -0.30049513684167   -0.04954872790837   -2.63138106678940
O          -0.85331933221022    1.19677586272145    3.24469748235595
H          -0.60278763522382    1.35431047896314    2.31744392232408
H          -0.27477105874640    1.73998849896195    3.78533568089565
O          -1.20967164313201   -1.24937041196880   -2.04296378857809
H          -1.47976562067914   -1.09244819547961   -1.11114863837080
H          -0.71215967096236   -2.07045169139836   -2.01862238055359
O           1.90883772431946    0.53049087036103   -0.91639721936729
H           1.35008940991057    0.66860700620101   -1.79112171037838
H           1.28455049786529    0.90255716850501   -0.15180438670515
H           1.72358965455426   -0.45007692020162   -0.65518070898126
