    19
        -40.92071428
S          -0.69497311214327    1.30368863799314   -0.12444082770068
O           0.76062568728400    1.09945964771532   -0.26300857321609
O          -1.31587062476889    1.59564106251146   -1.39596090386358
O          -1.29605268584466    0.19806013524561    0.58509616193468
O          -0.86185000459381    2.59393517699459    0.77213629148142
H          -0.86224946926266    3.31027000648642    0.14358191795451
O           0.22788042763892   -1.83379495870522    1.25736288730600
H           0.92975464041347   -1.35516196124781    1.74727810953447
H          -0.51118873604159   -1.18363467294546    1.21862519165253
O           0.84200459365477   -1.28142711460251   -1.07555148819522
H           0.96910193461757   -0.28721400757679   -0.85482265061992
H           0.63011529969701   -1.68869982655001   -0.07680797642783
O           1.93830214907270    0.09530085548928    1.92806267850397
H           2.88386073480798    0.24118795495893    1.87320990538897
H           1.53333910767534    0.60997200695993    1.20183100424472
O          -1.48877927657114   -0.93886879942798   -2.02660786764702
H          -0.05901047065672   -1.28813444662188   -1.57458433518390
H          -2.12075874984097   -1.23649292938754   -1.36557841665738
H          -1.50425144517299    0.04591322271994   -1.96982110853546
