    19
        -40.91753818
S           0.64150897644715    1.13322304314863   -0.10387483501599
O          -0.10970611483698    0.48069104257804   -1.16764057496336
O          -0.00493321432501    2.32713003200592    0.37310097487811
O           0.86578785774258    0.14891036687196    0.99458898837734
O           2.05036149759571    1.51564275712099   -0.63535832186056
H           2.53070444980872    0.66417081679165   -0.72714456255454
O          -2.38968314075154    1.29634617762598    0.43648198483159
H          -1.57536032730086    1.85548710773149    0.51036636183202
H          -2.52784794533923    1.20253169942471   -0.51050151717152
O          -1.03284754748601   -1.92462011903593   -0.94707865861541
H          -0.57091560633234   -1.07599906995145   -1.17608924918680
H          -1.69712686278866   -2.06849728775801   -1.62327201560218
O           2.92930615399490   -0.93962310873710   -0.25819009165238
H           2.17519263960978   -0.82548142472240    0.35052616292127
H           3.71369913471406   -1.03539405521539    0.28691838239470
O          -1.36488767654973   -0.84442034055041    1.32367892606497
H          -0.36540860287734   -0.45495027565281    1.32261064590688
H          -1.91774715601571   -0.00802731119337    1.05565754431415
H          -1.35009651532755   -1.44712005049001    0.49521985512764
