    19
        -40.91983427
S           0.45887431194192   -0.58756184468981   -0.52195597137681
O          -0.21856747102927   -0.80671415479984    0.72819355356593
O           0.26280194423301    0.74278435521648   -1.05560015866981
O           1.95921132594376   -0.85437392808052   -0.35773138463162
O           0.02841084246155   -1.63328628837282   -1.54907306236112
H          -0.93597508251708   -1.90822278586791   -1.32012229053010
O           1.43720548667072    2.32586916212032    0.77494405489410
H           2.09037622623461    2.88071516730071    0.34350969581527
H           0.94890877612773    1.87090682851655    0.06296073530782
O          -2.44277043274163    0.68768765894036   -0.98991470663523
H          -2.67502358828888    1.22580149234964   -0.22995762645931
H          -1.49554152185799    0.83963273593925   -1.15128812502941
O          -2.31322692395697   -1.96673012713858   -0.66997489856911
H          -2.01871131708210   -1.93007460659613    0.24848638329864
H          -2.61382970743888   -1.05504929947245   -0.88130636467446
O           2.11455062363929    0.04713055451819    1.99567664103530
H           1.96707424489198    0.98871551962001    1.75232267092698
H           1.24324039866964   -0.30002573900210    2.22365124211323
H           2.20299184409431   -0.56720468053306    0.59717962199061
