    19
        -40.91245764
S          -1.04793651548335    0.36662212235651    0.13215212887473
O          -1.27136820661953    0.29718319971607   -1.28579974145378
O          -0.41218240048252   -0.88097370971162    0.64230889876163
O          -0.24787097019998    1.51916332919949    0.53530352467895
O          -2.41169671815198    0.49042400460691    0.87744050452156
H          -2.84491414321406   -0.38364643570556    0.77925553643856
O          -2.78247134380989   -2.11787785223240    0.68350129203648
H          -2.89573488134625   -2.60722082224218    1.50193181048753
H          -1.82598262748269   -1.97988853244670    0.56750851897884
O           1.00764999929893    1.36222035513739   -2.08294069810520
H           0.89067050151959    2.24870329321735   -1.73248417267352
H           0.14192747026682    0.91996534270159   -1.93924030182702
O           2.84885807773979    0.08105742045895   -0.75209804036058
H           2.21537979448414    0.60460467359372   -1.32218459747598
H           2.88468690937276   -0.79918065037864   -1.13206121221992
O           1.62402912413160    0.20544810737281    1.44394453346138
H           0.85495677125465   -0.48525438491221    1.23540007567542
H           2.25434787439882    0.14422290998414    0.60969774307294
H           1.01765127431875    1.01442762925816    1.23836420711461
