    19
        -40.92343666
S           0.99126356259718   -0.17084504196484    1.35408828816386
O          -0.12181237056970    0.51798475469008    1.97174547164714
O           0.72169091091758   -1.59914441641881    1.18168207804018
O           1.41082251818769    0.45147440408170    0.10834728469592
O           2.22005052384040   -0.06857315367291    2.33468525161227
H           1.89781438980741   -0.50026210408386    3.11974801514169
O          -0.42182745823681    1.95159543332045   -1.09123996529199
H           0.31471923168974    1.52452620365069   -0.60041429275757
H          -0.41309563279006    2.87540979155143   -0.83729479144327
O          -2.05837959775314    0.27986129396432    0.22917410777575
H          -1.72187632251947    0.97481390908469   -0.37442999820110
H          -1.50489061500837    0.38586512331928    1.03940694166621
O           0.59016415574229   -0.55622570129864   -2.22256174661889
H           0.16643513438412    0.24567106752784   -2.54791830616843
H           1.14774331857739   -0.26288365162050   -1.47210693710075
O          -0.96651838663466   -1.78874672285765   -0.63007789064245
H          -0.27361956032652   -1.86937600307952    0.14905913310310
H          -1.57458299040893   -0.97164743942971   -0.30493381299477
H          -0.40410080149842   -1.41949776676283   -1.40695883062632
