    19
        -40.91907736
S           1.42302464858210   -0.86375936897905   -0.10376406005845
O           0.17992091506559   -1.35430374868312    0.52871424483395
O           1.60435952339344   -1.42149489440946   -1.42348822854247
O           1.49025084236944    0.57851162721293   -0.05167113212890
O           2.59656300912749   -1.41666030017946    0.80335629408064
H           2.76284028525817   -2.30040238860500    0.48572556473566
O          -1.67249562910803   -0.36593716956853   -0.79308307212940
H          -0.96138132316834   -0.89093246286955   -0.21607377682663
H          -1.94965328341056    0.44207326937400   -0.20002151666607
O          -2.12045413567856    1.55165662898545    0.79082453258014
H          -1.30963150362743    1.42273612006284    1.36418856936632
H          -2.88187306902846    1.49788964140911    1.37122725129648
O           0.01598343658750    0.86693912868924    2.11821223819737
H           0.69797644917486    1.02930227158131    1.43688268151714
H          -0.06499850814461   -0.09577208199340    2.11351743945166
O           0.07666040521829    0.46590940466353   -2.41417121242162
H          -1.09133041183754    0.01188213541887   -1.56887048898649
H           0.52799439837907    1.15198265750597   -1.90539389665007
H           0.67624395085089   -0.30962045961595   -2.33611143165164
