    19
        -40.91790596
S           0.11013456468558    0.65696001598258   -0.78072651331236
O           0.95086719896682    1.60895479696130   -0.11350128892525
O           0.92327192906191   -0.54492880656821   -1.22446657242605
O          -1.04306835296985    0.23884604571343   -0.02543136899260
O          -0.37086582947552    1.25062354404116   -2.14146969700763
H          -0.87807196397228    2.05173439081221   -1.89357603247586
O           1.94221621558936   -0.31138782366164    1.55524391398322
H           2.62289463357190   -0.72407752623750    1.01936968233057
H           1.69430602923516    0.50517885203548    1.09464735634800
O          -0.39719971532781   -1.69399778138871    1.80006102256341
H           0.49514888389798   -1.33847285296837    1.96764074709698
H          -0.88920764763182   -0.94314489734543    1.43494495829479
O          -1.44114367499674    2.98958633419307   -0.49028696953281
H          -1.86484569694560    2.28587732210732    0.01334418172527
H          -0.58696459541559    3.14131591153608   -0.06956463008099
O          -0.25667791061087   -2.65075605656641   -0.59698433827718
H          -0.29568306482375   -2.46498351695510    0.39280368657488
H          -1.16150072814612   -2.58799908604593   -0.91363088905169
H           0.44638972529589   -1.46932888565831   -1.02841722884461
