    19
        -40.91188303
S           0.75411193340602   -1.50212916631225    0.46509067116760
O           0.11783655521913   -2.04759502533769    1.61922696123953
O          -0.00159461378945   -1.44083477743383   -0.74773086348430
O           1.33815677856431   -0.12647071268754    0.79906454964643
O           2.04781196316837   -2.33918585099703    0.15144294702711
H           2.40920062731640   -2.65299130783731    0.97846660400671
O          -1.18035100300876    2.18097407582676   -1.61255991660703
H          -0.31220209641925    1.76875787937951   -1.81190590294493
H          -1.64825413464662    2.24289851842021   -2.44663423217313
O          -1.95995692477404    0.33254452525421    0.16711557710682
H          -1.52239537956178   -0.42041433545754   -0.25216306725145
H          -1.79975675767249    1.09778470053271   -0.43122079665756
O           1.08434623764082    0.74860779929929   -1.94850542898641
H           0.70284602041630   -0.11644269286891   -1.72547080508063
H           1.67197615321646    0.96530460967093   -1.21970745828395
O          -0.49706622282747    0.60328289149947    2.26944594553420
H          -0.64112969261539   -0.23362295975430    2.72713174042104
H           0.62774981839058    0.31051075140879    1.48073644661736
H          -1.19132924202304    0.62902106739124    1.53817699871377
