    19
        -40.91247183
S          -0.45422521190325   -1.57177746125323    0.55640238885329
O          -1.11179739850322   -1.58575255202837    1.82441042669860
O          -1.34033681627051   -0.85599201097343   -0.45985894779903
O           0.88675065880253   -1.09821873400571    0.48572301419317
O          -0.44510419859445   -3.06510534821747    0.02011012732967
H          -1.18854673264377   -3.50686933195490    0.42473630469350
O          -1.27354592968312    1.11580287903664    1.59314451734697
H          -1.21068145942118    0.20257997485787    1.90878078703095
H          -1.96379035242973    1.11862650953993    0.92550974169515
O           1.94798299115036    0.89651610481584   -1.02786359545921
H           1.59840137988120    1.66706812106069   -0.53124832154675
H           1.90077161166790    0.16170127849060   -0.39690110276526
O           0.80246085398176    2.64076833671557    0.66934851549411
H           0.04824059849970    2.12552634292639    1.01280047144333
H           1.32272404350838    2.89297532033590    1.43389226732148
O           0.03436217350975   -0.11457707500577   -2.38995990531650
H           0.79958276820504    0.38749014181833   -1.93992475401506
H           0.43078400476499   -0.88497658453278   -2.80367350191420
H          -0.78403296452334   -0.52578591165784   -1.30542844326415
