    19
        -40.92079051
S           0.87660163463172   -0.90585844427208   -0.78600175367411
O          -0.35453170142929   -0.26673938856076   -1.22994289174715
O           2.07627136218513   -0.19753683823756   -1.15143267405595
O           0.82107313116047   -1.21782316274731    0.64337080179760
O           0.91031902723460   -2.29939107965556   -1.53563737342232
H           1.78527082244431   -2.62665597609925   -1.35106060316966
O          -2.55062570536113   -1.12550250724975   -0.08110932197908
H          -3.29277924897607   -0.65121028657294   -0.46123126234352
H          -1.77328145396764   -0.94155922672535   -0.65975934032736
O           1.97897760078261    1.92125288867335    0.42568057160756
H           2.11039600938196    1.11633490661335   -0.12085254604481
H           2.54646598829221    2.59583373203281    0.04791622215814
O          -0.65543893523671    1.84614951969865    0.36728934842223
H           0.29220160512420    2.07529557189044    0.51427966378684
H          -0.63655455127130    1.27173752347892   -0.42490183599625
O          -1.09793637622448   -0.15317249719431    1.78842798090027
H          -1.83249384037006   -0.58551350887236    1.23723975271404
H          -0.24036488291273   -0.65863610025190    1.44199854647516
H          -0.96357047548459    0.80299485405663    1.33572670489597
