    19
        -40.91454130
S           0.07472367226748    0.68651922813615    0.93067040978089
O          -1.20470465977015    0.96188019190707    0.14815758530306
O          -0.20641809536034   -0.19107116904308    2.02044998144996
O           1.11507865677793    0.24619519502355    0.02512648814209
O           0.46368009054760    2.09555272643828    1.45908847844884
H           1.44927014751749    2.12418816652574    1.53792839435044
O          -1.83032172374938   -1.95580640618546    0.80174229939867
H          -2.69487872598880   -1.57747712474697    0.97524384121312
H          -1.20136022076577   -1.43578834546572    1.33412759625815
O          -1.23329100101146   -2.07499680006934   -1.82040744670249
H          -1.50707273580675   -2.06805954498211   -0.87748106973034
H          -0.58709240725441   -2.77839816861746   -1.90170142699782
O           3.02558314494741    1.69260188518130    1.18577546860567
H           2.65082134903540    0.95032097741869    0.67946631497809
H           3.50250442439460    2.24801022630185    0.56378937577806
O          -0.44492282223013    0.42168071398249   -2.16160836644529
H          -0.81519709425130   -0.49491978126036   -2.22252124217004
H          -1.00473054622784    0.83994329142626   -0.87353964322343
H           0.44832854696033    0.30962475802961   -1.80430702844280
