    19
        -40.91833228
S           0.78984392671475   -0.46722581897474    1.46212602808174
O           1.52423101460379   -0.87661516170599    0.25469599564526
O           1.32293421319647    0.74599374735708    2.03003479040513
O          -0.64001486155325   -0.44398918841559    1.22544545744979
O           1.03888925051840   -1.61807777732303    2.52191304418696
H           1.92664832901460   -1.44989068810223    2.82297124196074
O          -0.29779287153233    2.23209202289358    0.58630183485091
H          -1.09676773671528    1.81675593766501    0.92339390633223
H           0.41701929422412    1.84161525655562    1.13299832763375
O          -0.09680957430122    1.60105549937661   -1.94579854021448
H           0.64130760762514    2.10533419893076   -2.29304664749305
H          -0.19751222852909    1.88140918590872   -0.99362862582609
O          -1.84355484553636   -1.70875714554009   -0.68933338459927
H          -1.46328729329803   -1.34314446753823    0.14995295230206
H          -2.66557276470571   -1.23840025999676   -0.84257449086821
O           0.26983051802852   -0.91065254583490   -1.85451314940545
H          -0.61929413653670   -1.31146527165278   -1.54126866082795
H           0.11111248439084    0.09898848343502   -1.98379214738016
H           0.87878965443559   -0.95502599700134   -0.96587794228912
