    19
        -40.91335385
S           0.53900278153943   -1.68946748792969    0.68061715400095
O           1.81305980428081   -0.86249790277884    0.93462862405657
O          -0.49646047755459   -1.27342080306944    1.57771418228691
O           0.22164671383882   -1.72101401915061   -0.70662365461980
O           1.02143364209037   -3.11325909038843    1.11920715309680
H           1.01311399236858   -3.11180224089472    2.07379421567392
O          -2.28634414035294    1.04435455394025   -1.28494066340744
H          -2.78688636738232    0.22785651034606   -1.24628705383166
H          -2.04270829431413    1.25890626213055   -0.35683655089476
O          -1.26628313383219    1.32467322844136    1.18573586241607
H          -0.38855765378740    1.68034893705345    1.00580534501855
H          -1.12991794731987    0.40297224341639    1.45816531286378
O           0.21347841250908    0.62284685676816   -2.10319088909030
H          -0.73220551255649    0.87670072049631   -1.98178821105178
H           0.24225507017284   -0.32500279118748   -1.89780151431477
O           1.34866780583654    1.43934329577091    0.01999644905871
H           2.14559278511329    1.92665684395080   -0.20023504977783
H           0.90452521988446    1.19593172192275   -0.87343657610099
H           1.66658730947133    0.09587316120263    0.59547583464720
