    19
        -40.92453853
S           0.46767982174013   -0.23415418580509    1.43127606251558
O          -0.94103099551304   -0.60732619551478    1.37486503643069
O           1.26552673373770   -1.09100043914725    0.56090982526925
O           0.67978355785494    1.17403877332645    1.17007242668359
O           0.95812986112396   -0.49326755668187    2.91020401890269
H           0.80289847180437   -1.42101826362780    3.06227483305995
O          -1.78018547806044    1.43225171873322   -0.00239073987547
H          -1.18890205106980    2.10008395415144    0.36393679101326
H          -1.64475374860272    0.65172860593444    0.59109878256842
O          -0.61238123160247   -1.85643375024979   -1.05304603673074
H          -1.33338857471657   -1.87550281868817   -0.41279628026319
H           0.19354731223066   -1.72378133822095   -0.49165749334448
O          -0.62978231170644    0.46715223595124   -2.02677772795189
H          -0.67864702919836   -0.54482306022011   -1.76892674922669
H          -1.19211114045433    0.94734281537625   -1.28554831829785
O           1.69955046464984    0.97822894781519   -1.21043550272860
H           0.36225865317644    0.73677077015608   -1.83007595009027
H           1.43589310589445    1.23336178079186   -0.29236450159159
H           2.13591455873724    0.12634800598511   -1.09061847632834
