    19
        -40.92136399
S           0.82160238628061    0.59693853989753   -0.94422797936552
O           1.09013263386653   -0.64241494413928   -0.25030900898969
O           0.58315209216965    0.44643987222264   -2.35822534309113
O          -0.25211568135140    1.35131435604053   -0.27348833778700
O           2.11926373118978    1.49748204755278   -0.78288965225329
H           2.11749701366668    2.05141209763509   -1.55838224687836
O          -0.35074915825516   -1.25229937928487    1.85178204823854
H          -0.11588513791672   -0.44082762694594    2.35388963765724
H           0.33620066785973   -1.27290882480562    1.14688510964632
O          -1.08991897176635   -1.53039315409464   -1.87161523597300
H          -0.53176191498618   -0.80462080889604   -2.23251215577408
H          -0.47267112502822   -2.22490385170220   -1.62520698623163
O           0.59096234342026    1.20507063635588    2.27086208142519
H           1.54625774633292    1.28304546446919    2.24701722487592
H           0.27922006060931    1.43336053400000    1.37472662814894
O          -1.99800887571918   -0.38163687533368    0.21830651621728
H          -1.41208046037253   -0.83996011718839    1.02116461191303
H          -1.44662169431428    0.46485022499683    0.03248689438404
H          -1.81447565623238   -0.93994820088949   -0.62026381763939
