    19
        -40.91907715
S           0.31199663082314    1.38491921175498    0.87531899776359
O          -0.16074596242059    2.56093611137080    0.18316509253069
O          -0.78881469607202    0.43832807159783    1.15467904667206
O           1.41390935828759    0.71334235950018    0.22563214541440
O           0.82719031103557    1.85325166440828    2.29693951668109
H           0.24520166850536    2.56448943447411    2.55186716812642
O          -1.50157811937668   -0.41995012006896   -1.06146502475266
H          -1.01578787473971   -1.33857776610796   -1.09993856505962
H          -1.32402830215273   -0.06333723290623   -0.08396588516598
O           0.94424652140383   -1.67831190388963    1.23749469148877
H           1.42169692905406   -0.90586938228214    0.87561680629928
H           0.18892941349687   -1.27273604936804    1.68276294179117
O          -0.18233951687579   -2.57186068784747   -0.93683529525754
H          -0.64963092116930   -3.38512636532557   -0.73756860301533
H           0.35040116419244   -2.33678287716265   -0.12220061250313
O           0.04741813791862    1.28454350116338   -2.09811194659790
H          -0.10301931326000    1.98967091327375   -1.42943864803984
H           0.92173042162996    0.94159013737369   -1.87176433184283
H          -0.94677586029750    0.24148097003240   -1.64218752452527
