    19
        -40.92135391
S           0.76282205910486    0.75278667300212    1.13391686412666
O           1.60086649285649    1.21546568070637    0.04979801900484
O          -0.49900626246149    1.49102010764500    1.20558130656170
O           0.53912969957078   -0.68413077745673    1.11336849371324
O           1.52909252565288    1.05356709955427    2.48011466326118
H           1.73807036694211    1.97935379006761    2.40293139397545
O          -1.91489903283741   -1.46338399748701    0.50714476493902
H          -2.45014380644570   -1.49982094824145    1.30203266412389
H          -0.98623595099280   -1.32109701740413    0.80044681378685
O           1.22142767356008   -1.76633887374489   -1.25375126680936
H           2.17649248212245   -1.80404520388777   -1.32916034146745
H           1.03083572175840   -1.49658479094754   -0.33419147214749
O           0.22788343744055    0.54024791856427   -2.07808594956655
H           0.49838910310978   -0.40796397050021   -2.03609145913502
H           0.82903330695177    0.97152659568975   -1.42602905189364
O          -1.85068034452866    0.75564474140485   -0.75126938746906
H          -1.38781607002662    1.20281684259798    0.06479292070705
H          -1.02100743768501    0.65987496810655   -1.45472353723156
H          -2.04425392399905   -0.17893884776549   -0.39682542844456
