    19
        -40.92136485
S          -0.37112415487612   -0.40995593265052    0.90994508433379
O          -1.71336047466301   -0.76725430820842    1.24071786673718
O           0.09385221514598   -1.15522142194175   -0.37415949222998
O          -0.15091534106201    0.99919438486561    0.69151232149367
O           0.58539778443967   -0.95741153581553    1.96365791209549
H           1.52718726318812   -0.96540930325407    1.55914869368724
O           2.33251873193983    1.61705113857394    0.04018304939152
H           1.37921283084557    1.50472715237380    0.24565149180709
H           2.64666664536419    2.33243574035058    0.59632804851050
O          -3.37962643233506   -0.09530733391603   -0.74453948296333
H          -3.94145715873788   -0.85197375371796   -0.92358748790549
H          -2.91068063904772   -0.29271563049369    0.08982353002739
O           2.78569005353978   -0.89471778902990    0.70801155645306
H           2.56297296369945   -1.40878998561662   -0.07349039881225
H           2.79776149404041    0.05255599817061    0.42161225050969
O          -1.08525290402101    0.41577415149044   -1.96941672711707
H          -0.81588352091084    1.23593456704795   -1.54292872409960
H          -0.32075151108873   -0.62996665172613   -1.14284341700658
H          -2.02220784543365    0.27105053350121   -1.69562609492329
