    19
        -40.92136490
S           0.78528736624866    0.58465204709899    0.41693745087254
O           0.63044576019865    0.06362294897213   -1.04089157184743
O           0.92336580287426    2.00561116402847    0.43104074472966
O          -0.32947961500000    0.07217532079251    1.17637949241519
O           2.09265021494725   -0.06721113720984    0.85416101131202
H           2.07513899022258   -1.04411868519975    0.54490557746857
O          -0.57742228134865   -2.55566210849475    1.09686223037300
H          -0.60186344632167   -1.57746559442501    1.17569699540272
H          -0.66798438910868   -2.90117369529153    1.98688200474839
O          -1.24160193227218    3.17088037389532   -0.62894340889303
H          -0.45121159780767    2.88966741706112   -0.12768283549944
H          -0.94033492913887    3.82508024468007   -1.26254196233821
O           1.79473431586402   -2.41625520330044   -0.04921331625699
H           1.61767571493404   -2.23314372118232   -0.97644190519628
H           0.92359304586114   -2.65184799926493    0.35716906338195
O          -1.82417726768496    0.65281832920806   -1.21614954803750
H          -0.34487223486554    0.24196357443066   -1.27693427054418
H          -2.08733337494140    0.30817756417174   -0.35646421822169
H          -1.77661013265111    1.63222916002723   -1.10477153388166
