    19
        -40.92136496
S          -0.21868459325325   -0.62495073309674   -0.83232201020119
O           1.16863533318165   -0.23574728423300   -0.24510459009214
O          -0.37258807892469   -2.04410812530923   -0.86040362002385
O          -1.22030841232595    0.08263097989864   -0.07207591450838
O          -0.12810975904819   -0.08538306699260   -2.25555811908682
H           0.28536051747563    0.85137759685760   -2.21101212025229
O          -0.21941422087958   -3.05695863400858    1.61338096213937
H          -0.40123586343338   -2.81858184344133    0.68322744426430
H           0.38409512283738   -3.80223412506928    1.58763943903342
O          -0.87651579642568    2.70018877732268   -0.00856962564643
H          -1.08773339073149    1.74408944570921    0.06110510612152
H          -1.69568858233525    3.14211464817046   -0.23962805143458
O           0.93420983426314    2.18047409120550   -1.85559476923866
H           1.72519788025505    1.92726515607314   -1.37097542308595
H           0.30693540068888    2.55212328601033   -1.18635169116992
O           0.47391932474942   -0.55929241953397    2.16651316866528
H           0.25792142444724   -1.52218947482877    2.15863492842922
H           1.05674107883281   -0.32579577787542    0.76390792843448
H          -0.37273722937083   -0.10502250686696    2.10318694765246
