    19
        -40.92136490
S          -0.45718315205730   -0.95907650685452    0.06011702153652
O          -0.98586482411251   -1.75819959263441   -0.99837734365074
O           1.03373385627555   -0.60652106607052   -0.21153323373875
O          -1.15553018084875    0.28139604358795    0.29547831285521
O          -0.36412623896254   -1.78666410830486    1.33736127818280
H           0.28618652877174   -1.31284012464343    1.97222121044058
O           1.29720188539722   -0.42689340103165    2.68407522580279
H           0.85988463480824    0.46052627719496    2.65705920168007
H           2.03530052550306   -0.38148300081262    2.06942350712050
O          -0.12079270970959    1.75122229381515    2.23011368856419
H          -0.81051258596262    2.02013326431280    2.83978400896104
H          -0.57198621338347    1.30754461026600    1.47966766170587
O          -0.86900662593484   -0.43603617619826   -3.32367754279608
H          -0.49157967064014   -1.02776813919375   -3.97769613939909
H          -1.07011162926939   -0.98486828156618   -2.54047322076174
O           0.51520332323123    1.26446122797909   -1.83447021181689
H           1.00024057764106    0.15975162379946   -0.88270686372145
H           0.05056176569074    0.75775584098169   -2.54244244746771
H          -0.18161924644360    1.67755920537376   -1.31392411350384
