    19
        -40.92453852
S          -0.99631364968902    1.11773733160580   -0.28298879448788
O          -1.39268309282709   -0.03832517542442   -1.07955943112753
O          -1.08224092580825    0.81856295044590    1.14174499798584
O           0.30058481227099    1.63644601405786   -0.66407040148358
O          -2.04136017121282    2.26407341407216   -0.58078156941490
H          -2.88350590066511    1.90424366579900   -0.31774834531916
O          -0.94843240929358   -1.88896677712845    0.67992139363862
H          -1.23818487089662   -1.30890541194964   -0.06955987998719
H          -1.18808060318092   -1.38155135488517    1.46430727307134
O           1.52115094188618   -1.51095258262142    0.35482839965475
H           1.63023202681276   -0.65150346305827    0.94283905499130
H           0.53851157933885   -1.81967559396762    0.53406320954242
O           1.47025460274573    0.67140428850465    1.61482167353771
H           1.76491675144857    1.35540961969916    1.00234973627164
H           0.48608546397658    0.77690335535301    1.62452181915162
O           1.20416111524094   -0.45444438577684   -1.91160923373808
H           0.35863248011300   -0.77839684465304   -2.24415053135914
H           0.98907534983007    0.45060913019181   -1.57679041586919
H           1.50719648993941   -1.16266819025610   -0.63213894505369
