    19
        -40.91209441
S           0.74304459677724    0.12449083595058    1.78881255483201
O           1.47585728749564   -1.09262509277137    1.92149317240050
O           1.34515638714041    0.98096918146728    0.68287776276215
O          -0.67743817743737    0.03891614715193    1.62520273736121
O           0.99822662160759    0.97541606398507    3.09816392275254
H           1.88364775910161    0.78752392512000    3.40429117593050
O          -0.10661811977058   -1.45806918005934   -2.20968499351765
H          -0.15339473137833   -1.80147893691614   -1.28877344707589
H          -0.57502315862016   -2.09745042087631   -2.74944260663535
O          -0.94456266649470    1.06182773471207   -2.43859250361699
H          -0.65369412612857    0.12479554778298   -2.33892112269112
H          -0.34818313580783    1.45594896716098   -3.07744498208854
O          -0.35954104896440   -2.33665897150411    0.30814366303490
H          -0.88665066253416   -1.65685774026118    0.74830860423364
H           0.48149321185170   -2.32397973733823    0.78369002754954
O          -0.68721785198524    2.17000816786009   -0.07839751486947
H          -0.84979105643146    1.81744794046505   -0.99826822110961
H          -1.24440601161886    1.64390039830912    0.51150510843301
H           0.55909488300695    1.58587515939225    0.30703665230529
