    19
        -40.92218955
S          -0.65694939919111    0.22599040456084   -0.92596659262443
O          -0.54844702401826   -1.20421221341741   -0.65687635700182
O          -1.10017026040057    0.94963177320925    0.26148124728416
O           0.59956619924472    0.76829673416849   -1.44257764087179
O          -1.71795298789466    0.43192335015498   -2.04618975957593
H          -2.52496690657607    0.05255274496113   -1.64013588688337
O           1.71188379082002   -1.91147423279278    0.39807790544465
H           2.11306948621744   -2.53506052399329   -0.21112501214811
H           0.79858150355559   -1.73168840673918    0.04610398728123
O          -3.20631938258762   -0.72885022385438   -0.21283841929088
H          -2.86970883872544   -0.04031886046147    0.37588621123389
H          -2.52401741516270   -1.41306098488031   -0.20719280802187
O           0.81574583160258    1.58358783356745    1.88884477758397
H           0.81200681268782    2.54105383061454    1.95346682122392
H           0.01087695116495    1.34054162831857    1.35643848090446
O           2.39316326587536    0.51343014358621    0.23473384884351
H           1.72580900661812    0.68694897250544   -0.57373026805848
H           1.89414241146885    0.97444589203946    1.01612700978929
H           2.27368696530288   -0.50373786154631    0.38547246488501
