    19
        -40.91451144
S           1.22196428172321   -0.11705538433816    0.93851232191212
O           0.39514714605336   -1.38834378624585    0.99954802963806
O           2.15739868478055   -0.18548759171779   -0.13959777213368
O           0.37972222492633    1.03725328635661    1.01545388979462
O           2.05425447391606   -0.15299650974351    2.28174745591652
H           2.78952871268217   -0.75124904584435    2.16231696872118
O          -2.50795723757241   -0.73119410417163   -0.97627359698122
H          -2.75954783767283   -1.59809298285574   -1.29900719449952
H          -1.62589070221123   -0.53848344662497   -1.36852644186684
O          -0.03059744200381   -0.27164331787612   -1.86997300227511
H           0.10335262793561    0.69187120999116   -1.96427996431561
H           0.76802498306550   -0.58573220173881   -1.43281944966872
O           0.86192576509552    2.24578496885771   -1.40304521995666
H           0.61730485567937    2.06221020417950   -0.48341154295910
H           1.79905097153120    2.04675795983292   -1.46889152985606
O          -1.83857439122473   -0.49395638957176    1.52294918707645
H          -2.25254178890135   -0.58053298103649    0.61525340967260
H          -0.60483884603032   -1.10894395235469    1.28832293994973
H          -1.52772651196635    0.41983408453922    1.58172150161195
