    19
        -40.91641695
S           0.23737325283558    0.40033331048462    1.06512833678367
O           0.60798932236023    0.85416804004102   -0.25860311771207
O          -1.23325434713503    0.03146170326996    1.08884106699817
O           1.04100997789845   -0.67323498085422    1.56506353941558
O           0.30345767816207    1.61538337410209    2.04207982606451
H           1.24945088549334    1.86909121904856    2.07880554925286
O           2.85544972054430    1.44445176915933    1.42049516664932
H           2.82034671427549    0.50535511387189    1.63869042325286
H           2.68879159942450    1.50831587074126    0.47445923627266
O          -1.95273677424932   -1.57189844317641   -1.99528105813478
H          -2.51380622361012   -2.19676483549656   -1.53268390277019
H          -1.03178259583429   -1.77462255782663   -1.73036854889543
O           0.55382280134764   -1.77620250020798   -0.98656883121117
H           0.74760149413480   -2.01725347978106   -0.07444494275926
H           0.76477079474156   -0.83340538865040   -1.03986767052217
O          -2.06792038446976    0.89555560533773   -1.08789018572381
H          -1.21176411271327    1.25932616193228   -1.34685124734388
H          -2.14903779923611    0.02220100821009   -1.55670753270175
H          -1.70976201397587    0.43773902980024    0.23570388310683
