    19
        -40.91373478
S           0.30953104213746    1.49411694720640   -0.67500805098916
O           0.17348574999691    0.39443509599601   -1.59250358904865
O          -1.02093151113587    2.20574204345781   -0.48361618222549
O           0.91600203828565    1.19361492039196    0.57998224948074
O           1.17900361430425    2.59176658719058   -1.38567053269104
H           0.83065333240020    2.72954438646474   -2.26514994270064
O           0.29364215413261   -2.73705495491375    0.94737132408627
H           1.05041128833973   -2.24607468293262    0.55784678944542
H           0.35509175065948   -3.63654496059024    0.62238734411610
O          -1.58444228484970   -1.06460568417401    0.00750758210002
H          -1.08618350251560   -0.69607086678801   -0.73424269431088
H          -1.00090555737650   -1.74210246326393    0.41687951340714
O           2.06899408253604   -1.14093855888055   -0.29796507545250
H           1.52038387314178   -0.85359157821722   -1.04027230012891
H           2.05527261660503   -0.38943864685657    0.30869842818003
O          -1.78273602244544    1.00634341963752    1.54006199004327
H          -1.86607851935433    0.12712750334499    1.06194811335595
H          -0.95495384846893    0.96365939694894    2.03155157736871
H          -1.45624030639807    1.80007209599247    0.40019344596555
