    19
        -40.91832175
S          -0.57297875573267   -0.49625550627879   -1.16879135945358
O          -1.05344325010786   -1.28209933432805   -2.25702375669237
O           0.94191031763546   -0.29048547578604   -1.33639666677044
O          -1.20618332690510    0.76093054780202   -0.90006677334449
O          -0.67109263037371   -1.33963975539084    0.14906467097308
H          -0.25906123675628   -2.20513522412740   -0.09486391737724
O           0.47282974450536   -3.22917546039398   -1.21924573040247
H          -0.09566020923084   -2.85283986831489   -1.91174657092089
H           1.36808968018143   -2.94303565861643   -1.42020651500303
O          -1.57095008196568    0.82810765087326    1.78231863287600
H          -1.62971530570431   -0.11457880807115    1.95665454852239
H          -1.59409849807033    0.90723675257021    0.81194388320098
O           0.93433812390907    1.65584049595503    2.17367274776700
H           0.00019567608636    1.34113948257449    2.14052769633474
H           0.94562973928493    2.41438674402890    2.75977300237206
O           1.22587309078604    2.02156244523597   -0.42259492905484
H           1.19219563429695    0.65299019857199   -0.97455184293083
H           0.31496873425538    2.26216882538108   -0.63184999696901
H           1.25715256391171    1.90888192831154    0.56338288686656
