    19
        -40.92217270
S           0.23566636535741   -0.89368691329194    1.02597656951874
O           1.39896854408217   -1.70589541744658    1.23982354525987
O           0.49573554761741    0.54218248942350    1.19060585907522
O          -0.49671482055187   -1.15019435210492   -0.20166577329147
O          -0.80015570603783   -1.25687016318234    2.18955072890975
H          -0.26181029201349   -1.62313113023516    2.88494548757825
O          -0.59718917668825    1.86346330118063   -0.59253958682077
H          -1.52802834459757    1.47960773438154   -0.46547254405946
H          -0.08237566790978    1.42287231189870    0.21692208518440
O          -2.60526707382988    0.38370623485285   -0.01283395891177
H          -2.90255144756663    0.36612834498836    0.89893036824912
H          -1.96357412076288   -0.35772643461463   -0.10439138431775
O           2.51862295654633   -0.16565515019702   -0.66090309470154
H           2.24306934278897   -0.86071342525467   -0.03727800938285
H           2.78739225178216    0.57633158856295   -0.11394479732688
O           0.42683429142834    0.30646901400454   -2.25437152796512
H          -0.03288685630168   -0.46395237739775   -1.87613183715384
H          -0.17748927065146    1.32782108198459   -1.41822635585886
H           1.34175347733146    0.20924325243297   -1.90899578400377
