    19
        -40.92182543
S           0.98150186821075   -0.32109936869026    0.56720975876508
O           2.13251976895777   -0.99468876324766    1.06865117091186
O           1.19195660888313    0.82482714018377   -0.27671256827066
O           0.07811503938592   -1.33281889332998   -0.12607981662286
O           0.10435229642179    0.18208541843546    1.76777606124995
H           0.05174114373410   -0.60844838461130    2.35753545667706
O           0.41507975821904   -2.22167296284393    2.70909773365776
H           1.29168842691112   -2.09118631685216    2.30956188290516
H          -0.04968353779478   -2.84225409188974    2.14106667831819
O          -1.20206451357537    2.04171303809526    0.04226213357698
H          -0.25641609100674    1.82630893235817   -0.03849135483949
H          -1.40113225999247    1.97990263808489    0.97899310052238
O           0.41068216147724    0.91844228124675   -2.89606279901798
H           0.89809046379401    0.90114674365910   -2.05486200398691
H           0.37669797670448    1.83720614438643   -3.17062645443077
O          -1.59858441229789   -0.10960251508211   -1.47888367746489
H          -0.69070483262994   -0.86271533525814   -0.72312646015346
H          -1.71049960481711    0.71245083350099   -0.94673915458843
H          -1.02334026056259    0.16040346183645   -2.23056970721876
