    19
        -40.92120602
S          -0.85169214232948    0.98562721062803   -0.45519382272607
O          -2.27286681363471    0.77675741782577   -0.49649559682689
O          -0.32368675568222    1.10892090633853    0.90393285692284
O          -0.06384825835557    0.04869824196116   -1.23962701943915
O          -0.57682699158957    2.40306401054919   -1.13793080456687
H          -1.36165245014108    2.90875779060468   -0.94929287476629
O          -2.03512826701803   -1.50161240238754    0.87105395980630
H          -2.85973934991382   -1.98515966332514    0.78784398337876
H          -2.17374460801963   -0.64526481361295    0.42189573635242
O           0.43395795451834   -2.18486091035437    0.14779348923963
H          -0.45560961197272   -2.17073192291884    0.56195061768258
H           0.31736903835825   -1.62605295674917   -0.64369514978598
O           2.41147339412561    0.80424015659550   -0.83753105252032
H           1.52909417245649    0.54715033703232   -1.19190139825996
H           2.43669785147550    1.76277169170913   -0.85357455246346
O           1.63722843208296   -0.33995685039314    1.32033155846863
H           2.18887635961080    0.05322608130226    0.56551332100124
H           0.79663241680796    0.29450647635566    1.30258735924640
H           1.22346563922303   -1.24008079114643    0.92233937925370
