    19
        -40.92453705
S          -1.08636875435131    0.62563655684523   -0.86649294188037
O          -0.44306922058177   -0.40923029120953   -1.66748033360126
O          -1.73573015637122    0.04560419642913    0.30431779258840
O          -0.18222126121899    1.70333054088400   -0.52414289720752
O          -2.22609875434879    1.26311388630296   -1.75498828671476
H          -2.82580600375999    0.54575665859443   -1.93829398639404
O           1.60938878508510   -0.76740409882850    1.24255556616183
H           0.86452941909779   -1.46058953399481    1.00246417012970
H           1.09053533151873    0.02819414615593    1.68208706090923
O          -0.35361308918777   -2.14177919627886    0.46431272884705
H          -1.01394320864265   -1.40371779362986    0.50034578211096
H          -0.21702616846375   -2.27675717178069   -0.48085483110095
O           0.15001786068742    1.14686911391105    1.99016023554414
H           0.05955012232712    1.56472109314911    1.09857643868784
H          -0.72372849252458    0.77198702462381    2.15290046933806
O           2.01908765106426    0.16612184588986   -1.06253268216063
H           1.92731336410610    1.12381486252351   -0.99815854627524
H           1.92765239420227   -0.40217449556605    0.31420579913804
H           1.15953016131788   -0.12349734402744   -1.45898153811021
