    19
        -40.91892040
S           0.91674962279340   -0.54297135229079   -0.49141717941899
O           1.12194053534979   -0.70812496123200    0.91570208579514
O          -0.11371730523775   -1.34850340899188   -1.08738064274663
O           0.61565397505841    0.93438682667444   -0.80658176862225
O           2.25442732829743   -0.79833365884884   -1.22905993637689
H           2.03169165005089   -0.71367914624841   -2.18958762609884
O          -1.46417792328405   -1.48221583525902    1.32968442611587
H          -1.47214265924669   -1.66086500311966    0.38119941971773
H          -0.52247715948941   -1.43634271518761    1.54648951569943
O           0.89257278608915   -0.43215931288962   -3.41822222894012
H           0.22768505007925   -0.90823141223258   -2.89552008789838
H           0.63138940674175    0.49287180290144   -3.41162006972216
O          -2.04170936302608    1.07710990523075    1.87131868827340
H          -2.51451098397198    1.12529425276411    2.70391637306809
H          -1.94911000914236    0.12033322237977    1.65847834913171
O           0.44234487110851    1.90603372805806    1.49000427686493
H           0.90868500463460    1.15461100210873    1.87823458406394
H           0.55390175368352    1.47151117041359    0.08552096643440
H          -0.51919659048953    1.74927489575414    1.66884083467479
