    19
        -40.91907729
S           1.37203043182449    0.02570282470575    0.94782231513464
O           1.83822331095483    1.37572833384578    1.16180231757633
O          -0.00310981079020   -0.16303598710846    1.45658354740006
O           1.48092807559740   -0.43336793178296   -0.41783810088653
O           2.27612171032704   -0.92716676309768    1.83147446167452
H           2.47771044846607   -0.42346296748805    2.61579561354752
O          -1.45040482635279    1.20605378722150   -0.02247747761944
H          -1.82796675857634    0.48903278856494   -0.67428140527636
H          -0.91736410411762    0.65539626984918    0.70293506391201
O          -0.45065317223733   -2.22642000692671   -0.28692152160508
H          -0.56798280850708   -1.94563170527737    0.62985857807472
H           0.37826555796933   -1.77751756514357   -0.54619646193828
O          -2.18452047279797   -0.70612285469164   -1.50255401890246
H          -1.53767918147190   -1.38397051260942   -1.14923262857919
H          -3.06297715150132   -1.07000673059838   -1.37832727661479
O           0.66306391846568    2.11827698405137   -1.06157208452102
H           1.19650474458139    2.12667884781840   -0.23541946931412
H           1.00776830156826    1.35638348562876   -1.54518587115094
H          -0.68795820340958    1.70344969307144   -0.52626557089482
