    19
        -40.91836608
S           0.14843148875270   -0.11472762267823   -1.96311121612943
O           0.37804116177185    1.31268450446809   -1.83661759340391
O           1.26449565874110   -0.88123157798603   -1.38640847672910
O          -1.13181126611831   -0.53936785377336   -1.44544469766828
O           0.15375666940694   -0.44830601529402   -3.50493770483753
H           0.97044934753460   -0.05520102815664   -3.79740095016871
O          -0.18280272024080   -1.42745680462103    2.29598166400066
H          -0.24038455435231   -1.20320864040053    3.22665118775315
H          -0.90550495561895   -0.94493379299249    1.83653256552761
O           0.35226002076798    1.81780433481473    0.70897312446105
H           0.38043853207308    1.83046356935920   -0.28126343819736
H          -0.53899652755777    1.50028429069987    0.93058020971260
O          -1.84481438432354    0.16238717633992    0.92231623783618
H          -2.80316320336173    0.17383707104673    0.94530537294275
H          -1.60533044177289   -0.12462020497974   -0.00302692398643
O           1.69836893098577   -0.27811408615698    0.96013556449708
H           1.24179292030006    0.67518479867813    0.94527526820455
H           1.07066141898532   -0.85788767198217    1.50514205209620
H           1.59411191402669   -0.59759044638880   -0.05868224591395
