    19
        -40.92453847
S           0.88124191405227    1.22155734379682   -0.23049007257380
O           1.58440574172880    0.35929103903133    0.71228384859626
O           0.70931686348205    0.55292465156596   -1.51561099737075
O          -0.36614448314775    1.72658189556099    0.30351956531999
O           1.80127294703967    2.48006573604535   -0.48476198444312
H           2.61331533535960    2.12472404973732   -0.83439523146436
O          -2.00442066330227    0.28218374302611   -1.10134403439118
H          -1.54508451150758    0.97735417662752   -0.56907648688870
H          -1.46102572190400    0.21069295454566   -1.89508567123735
O          -1.35631487202299   -1.65641673348306    0.37343896201098
H          -1.76117121109086   -0.92476672075406   -0.25618563807578
H          -0.45184442573995   -1.91721208784680   -0.08118355684912
O           0.90912068751875   -1.89981727585933   -0.70200915649317
H           0.88537539221697   -1.03346761858338   -1.18265998269953
H           1.54894475279501   -1.74928513131204    0.00370924342387
O          -0.44685354382998   -0.21533510019488    2.23059146111774
H           0.43233219984897   -0.03109118219535    1.81488393732244
H          -0.90409453431246    0.63191984734403    2.17688907703757
H          -1.06837187722704   -1.13990359703711    1.23748670764636
