    19
        -40.91833238
S          -0.25877815742762    0.60082453452674   -1.59778949966275
O           0.89035674069679    0.19734823644662   -2.36917664380365
O          -1.12126827035068   -0.54217382504240   -1.25962496681906
O           0.05130886701159    1.39113566596577   -0.42267669049937
O          -1.13443398937062    1.53317810824901   -2.53242641200381
H          -1.11477262796692    1.08300877610880   -3.37147946669047
O           1.02976443535727   -1.78488296009655    1.45805847724761
H           1.55722646831514   -1.18756770643760    0.85803497521500
H           1.22972607301441   -2.68099442962019    1.18134192908045
O          -1.31919723082406    1.37670918642788    1.77572774396300
H          -0.71649845694014    1.65988780793399    2.46643068941976
H          -0.85898027135579    1.54692270446333    0.91422379195625
O           2.30597419164868   -0.19792466275224   -0.18681630358568
H           1.91009421364025   -0.17960135111997   -1.08397404758495
H           2.18522720464802    0.70046680634846    0.13376289937345
O          -1.38636748343366   -1.07808003953507    1.12105418168727
H          -0.43592165557118   -1.41525165316263    1.33188250526621
H          -1.46269385824318   -0.13832833248379    1.52189879421474
H          -1.35076619284053   -0.88467687621265    0.06154803322819
