    19
        -40.91907732
S          -0.54758285578843    0.86162001748092    1.31924154507160
O           0.85582794540149    0.45160204856179    1.09993387730044
O          -0.75327012643350    2.25248043856505    0.98922331020424
O          -1.45632357929527   -0.04852183593853    0.66103124687480
O          -0.78588773369232    0.71030934830512    2.87693965682234
H          -0.47130865016492    1.52606046251059    3.25778382796445
O           0.12272454330251   -2.16150786674454    0.74391625131381
H          -0.68563596129661   -1.61189074581316    0.73398565419180
H           0.76614971827103   -1.58662089908081    1.17834024198520
O           1.19644972148396    0.53785598278885   -1.35617925772762
H           1.09407120829505   -0.46284731707912   -1.62043400186657
H           1.17594155271690    0.54019464520065   -0.30087217131018
O           0.85487132748874   -1.93516122493807   -1.74749815900061
H           0.51908888010918   -2.15460986158041   -0.82992960654784
H           1.62549353950585   -2.48511736026818   -1.89975170231654
O          -1.09379536885405    1.58940416098883   -1.52491117752582
H          -1.03647798517424    2.11085165842208   -0.69315470891755
H           0.29983968644678    1.00818525813694   -1.59532088884255
H          -1.68017587232958    0.85771309049036   -1.29234395766815
