    19
        -40.91398608
S           0.01531386719873    0.88420359835383   -1.40111799294851
O           1.30089250651489    0.42188898357644   -0.86497982009618
O          -0.54167316752229    0.03308878792167   -2.40509179383854
O          -0.89173206779968    1.19846432896320   -0.28786506727366
O           0.30941301154866    2.28933951308231   -2.08035216249881
H           0.43751901208874    2.11442935480212   -3.00866806205940
O           0.48728812174889   -0.78816146617052    2.58224203551065
H          -0.42031653919486   -0.89750236905849    2.87574425017239
H           0.59508996928815   -1.37398423561514    1.76433087966281
O           0.58635685001166   -1.95303020892305    0.29345020236057
H          -0.35904773431595   -1.94612707518375    0.02941953781975
H           1.01762172914795   -1.28861318204829   -0.26791711444186
O          -1.91967794068687   -1.31538055671163   -0.43908339430872
H          -1.86052551478240   -1.38082898804451   -1.39858732255909
H          -1.82292611568172   -0.36660734355629   -0.26439430029811
O           0.89746218376019    1.36523582044026    1.39518409733139
H           0.75606592646729    0.49666330429611    2.01335821503172
H           1.40927125598468    1.02102260739678    0.57921220287564
H           0.00360464623351    1.48589913647875    0.88511561955650
