    19
        -40.92139820
S           0.51907070741416   -0.29946639450543    1.05293418164969
O          -0.86804596360588    0.14396086717221    1.15252559357326
O           0.64717035156679   -1.33943151201410    0.03332648762233
O           1.42668053028799    0.81516470231318    0.79238000620585
O           0.94396935600450   -0.90537421057091    2.42108465832669
H           0.30511157649482   -1.63782365954643    2.54033256954628
O          -1.07328680364282   -2.49281524520129    1.82870597710238
H          -1.54961750667634   -1.66008908941903    1.70893172056855
H          -0.60372940965678   -2.63207122566389    0.99582027852777
O          -1.57764584957697    2.02621161761167   -0.48998566194468
H          -2.24568416273597    1.62226164763839   -1.04835926372104
H          -1.38981026399386    1.37462753066289    0.23628889779152
O           0.70973253484289   -0.33583121032515   -2.34613222691411
H           1.48834779544214   -0.69033777023229   -2.78072174079416
H           0.64959026110534   -0.80577087515795   -1.46801829394423
O           0.81215173943024    1.96542271092169   -1.30143296950377
H          -0.17852728516700    2.15162948238290   -1.06735616568910
H           1.18295103343576    1.58748912446808   -0.37828145558380
H           0.80157137903023    1.11224349945895   -1.88204258282058
