    19
        -40.91930878
S           0.37516917532406    0.77225965072424   -0.19616634510119
O          -0.58887166548502   -0.13032570863574   -0.97673669051122
O          -0.36188794762087    1.37315963822290    0.88882453944015
O           1.55485598175628    0.04898539390249    0.14568209639149
O           0.75332725043309    1.88759256030600   -1.20495690314059
H           0.00903495004018    2.54276842113052   -1.19949773421320
O          -1.28154198984758    3.37970156662394   -0.57694842969225
H          -1.25086790697692    2.74748789432402    0.16442360062361
H          -1.08331872382124    4.24647337193843   -0.21358954242842
O           1.12436053322498   -2.49519249618204    1.10921146164173
H           0.28327519210179   -2.21973275274111    1.51812826321965
H           1.64665966652667   -1.68229538085151    1.06410231384610
O          -1.15384117198409   -1.11431658467994    1.71225155635316
H          -0.91463569121093   -0.17924432797363    1.63201112673450
H          -1.84338446056730   -1.27184454573768    1.06321543519171
O           0.61061059446447   -2.28180845196764   -1.42872792066316
H           0.78810378982737   -2.54199351210842   -0.47417155052487
H          -0.13378780066089   -1.03578568190732   -1.23222723343444
H           1.46674021446011   -2.04588905438016   -1.79482803373970
