    19
        -40.91339507
S           0.16125053785989   -0.23066782449068    1.74002488279198
O           0.43814072568272   -1.60296308035056    2.00673854215738
O           1.20314686703409    0.32868973024268    0.77425137080911
O          -1.15012926232692    0.12246669053164    1.28429513996317
O           0.41355847662278    0.58215703137187    3.07022134714197
H           1.10363443209069    0.14406918427972    3.56499697203451
O          -0.42755607931482    1.20472633764291   -2.51724993784527
H          -1.28495144394053    0.86752599797380   -2.78261009389935
H           0.15877623198910    0.41582514256139   -2.41192117700208
O           0.96796414764954   -0.94449306359404   -1.83309347208864
H           0.27003941876644   -1.50555353478298   -1.43930722864863
H           1.51949850671774   -0.65895206754817   -1.09841952882083
O          -0.95768451425053   -2.11104891455041   -0.31564996073588
H          -1.43340639449113   -1.37026123134608    0.07993153141683
H          -0.46406579973035   -2.50034902522414    0.41567368299551
O          -0.11954312850037    2.19966328066452   -0.12672147392169
H          -0.91269765370130    1.88441394521832    0.33005755664517
H           0.75164236831349    1.21463922730672    0.35073387315583
H          -0.23761744643558    1.96011216408269   -1.09195200618641
