    19
        -40.90951433
S           0.62542057410809    1.21389965987975   -1.11589141791659
O          -0.37997032804193    2.05399219620662   -1.68244466313752
O           0.74601886922675    1.48508356277558    0.38109693944590
O           0.52843524838445   -0.18957181937454   -1.38284923838996
O           2.03398407170896    1.66361731317687   -1.64932845282155
H           2.06199300357900    2.61862542102118   -1.64363030198318
O          -1.83188658243586   -0.63561306859004    0.05556083581306
H          -1.45777996118015   -1.16612304584135    0.79106893508100
H          -1.15072791848990   -0.63353694195194   -0.62969337474437
O           1.73393191547739   -2.01886516244641    0.19843657711822
H           1.38618740887082   -1.31254247215111   -0.37509565445135
H           1.94985004686823   -2.75025333797233   -0.38339594459650
O          -0.42543241328077   -2.05999232118309    1.86421481710020
H          -0.57511082388634   -2.97177579803548    2.11798623278256
H           0.43253677002332   -2.03377084230483    1.39681286096093
O          -1.67288860554242    1.84995149745753    0.78146828155108
H          -1.92545334789312    0.89533595766446    0.61568178364796
H          -0.23828845991193    1.68342843292459    0.71087119475043
H          -1.84081946758696    2.30811078874163   -0.05086939021017
