    19
        -40.91346194
S          -0.31577475328957    1.87378900414356    0.76316704566096
O           0.99320339697303    2.05381967630154    1.30932117917369
O          -0.33593140096001    2.18138117774645   -0.72494074141566
O          -0.92759037491837    0.60068027280717    1.02718167484492
O          -1.25858753635389    2.98530627202998    1.34633875584670
H          -0.76138748605568    3.80083525521498    1.35271532547919
O           1.44499729480087   -0.62239562133946    0.64938483490080
H           2.05423232733497    0.02031726380179    1.02519253956385
H           0.56929413595331   -0.34008951890267    0.96932980408754
O          -1.59101807472471   -1.31358875856498   -0.91464983309642
H          -1.12056582362787   -2.09937421067979   -0.57676577576425
H          -1.71761140428095   -0.73589771074655   -0.14943489513812
O           0.27757707842574   -3.09835576146169    0.01246842316281
H           0.79464547974788   -3.58521477723735   -0.63147606016776
H           0.85008201038456   -2.40293596291002    0.36629935309192
O           0.41781736113666    0.08299840559799   -1.78419101970971
H          -0.00461127048803    1.31406045111524   -1.28169748840152
H           1.03734034103797   -0.23762369613364   -1.10073862419211
H          -0.40611130109332   -0.47771176077465   -1.65750449792846
