    19
        -40.92217254
S          -0.84747387557179   -0.32124279416316    1.04176927321069
O          -1.20055639153221   -0.63051309435088   -0.34991890502127
O          -0.81440119565727   -1.48086991978943    1.88586402626403
O           0.32188658887693    0.53767818890290    1.10143453198601
O          -2.04307123750268    0.60095962994294    1.57028297477723
H          -2.62650502711553    0.00208214216746    2.02695852528486
O          -0.31935113807482    2.58361598507144   -0.39392609831746
H          -1.24326466025162    2.78729507669705   -0.23606147133563
H          -0.04862196537546    1.97035797809771    0.32757637462835
O           0.94122412672357   -2.43171045479992    0.08130915762443
H           0.32033182557093   -2.77521395780646   -0.56555567899060
H           0.40441382917625   -2.20631556190560    0.86157124758839
O           2.21575493874170   -0.19945169848176   -0.64951528234070
H           1.91702678144179    0.23705342523780    0.16769559089999
H           1.98638810239323   -1.14206764014549   -0.49276345667229
O           0.23422008007124    0.61369878672994   -1.93422588646977
H          -0.43959526911970    0.02678018562760   -1.37076215992808
H           0.07009903937086    1.53441349971633   -1.54043155416888
H           1.17149545766734    0.29345021336078   -1.53130121901227
