    19
        -40.91601621
S          -1.02407810666678    0.57083297477370    0.45623232241658
O          -0.35248951810333    0.60989333019934   -0.93008021774401
O          -1.00969772082412   -0.79364943997843    0.92925976743721
O          -0.43368758489441    1.55110575335269    1.30439739112535
O          -2.48390494012732    0.99093465586790    0.16294563921372
H          -2.96394958724500    0.17830164161286   -0.13987041055284
O          -3.28486578542573   -1.45016259355111   -0.23921030060790
H          -2.43160619119783   -1.57121139314208    0.21877662930630
H          -3.96925877211894   -1.77672184792901    0.34993344877705
O           3.09262695188384   -0.30746255258866    0.18696728745109
H           3.94137031362897   -0.23811006359361   -0.25329866478911
H           2.73954270616686    0.60937922221524    0.25761491909487
O           1.93117569032626    2.10306698060143    0.13000060411497
H           1.16419350533852    2.03908869451945    0.72666865607791
H           1.55750122998943    2.22323460110398   -0.74687279258414
O           0.98141495348617   -1.49906170907594   -0.83348636021080
H           1.84774363800147   -1.16474876515860   -0.48351992384175
H           0.48847429091942   -1.81162620246130   -0.06395422203841
H           0.20949492688343   -0.26308331676798   -1.03250377265849
