    19
        -40.91923795
S           0.03757316051002    0.85947441085347   -0.45495749040681
O          -1.23934841377098    0.19441704250956   -0.55071498645869
O           0.98954074534418   -0.05077467336236    0.39078980569754
O           0.68193155598076    1.16851401787585   -1.68641926219903
O          -0.10397113858706    2.09478789545136    0.43192957373123
H          -0.85970136368579    1.88404562707853    1.10015197822844
O          -0.10740587909463   -0.46033500798245    2.90143234341521
H           0.53021114444976   -0.19678253527714    3.56779385425132
H           0.36261750729323   -0.47548070511425    2.05305185841846
O          -0.40343577274494   -1.52060272634161   -2.45308650941508
H          -0.87064692651694   -1.01804070124892   -1.76200802653962
H          -0.49345936699972   -1.00171284785246   -3.25590943641630
O          -1.95189375026835    1.20252302973510    1.89413121480898
H          -1.43982258760134    0.58066755697264    2.45566232939230
H          -2.27955507570046    0.67533652395491    1.15240582475133
O           2.07622002961788   -1.26298505167874   -1.53129406990295
H           2.31921606414868   -0.48010496665797   -2.03777631887791
H           1.52267672918674   -0.61549857428587   -0.28424876783985
H           1.22925333842622   -1.57744831460093   -1.93093393461391
