    19
        -40.92174057
S          -0.89445392740274    0.04335783240874    0.04058262489137
O          -0.75067666497843   -0.70356512225000    1.27239861687658
O          -0.09748708427992    1.33282577732674    0.11489438626728
O          -0.55773100984361   -0.69028293709088   -1.14403921032734
O          -2.35527541702695    0.53059306301804   -0.07260503327565
H          -2.62808764332492    0.78294440275860    0.84733166062197
O           1.46586393855333    0.03231150793867   -2.76507573759345
H           0.68456059772296   -0.33295566180711   -2.30812889983921
H           1.13316841231174    0.62414214372632   -3.44176140270982
O          -2.61366995173423    0.71903183682825    2.50353695540732
H          -1.81985035172874    0.15939259923864    2.41683010207081
H          -3.29180310587005    0.17966622999509    2.91818053297543
O           1.68183058406112   -1.63284545149247    0.53365792766559
H           1.44310094565119   -2.12167035213543   -0.25834242962098
H           0.84493676163767   -1.43596111475055    0.98589636159502
O           2.27032435751822    0.80141377264899   -0.34951725415161
H           0.96613035850097    1.18160046176359   -0.05415557397579
H           2.30717708736823   -0.08782519400089    0.07578961450193
H           2.21194211287321    0.61782619586606   -1.31547326137384
