    19
        -40.92343664
S          -0.13865777090791    0.17281707897704   -1.67239904803222
O           0.66417862612563    1.37820895385649   -1.46040404947414
O           0.66919562373987   -1.02756369430332   -1.63446926636284
O          -1.27016441897989    0.11318199821791   -0.76062898730918
O          -0.74496356818364    0.29557264620766   -3.12129501794719
H           0.03154297214646    0.35305959890823   -3.66924722197007
O          -1.02661515075919   -1.59801762072281    1.25444006219182
H          -1.36015438522366   -2.47840627731668    1.07641132222525
H          -1.20286875568620   -1.06822555212789    0.44574146959889
O           1.32932727024074    1.37554912259928    0.93253588909819
H           0.39655384389852    1.47213917321996    1.35316287718095
H           1.14495565200908    1.50710565038846   -0.08837700635710
O          -1.12021337001177    1.30849871987329    1.62072018324505
H          -1.29498692751377    0.52291967017756    2.15069406945387
H          -1.38368943187553    1.06419045158023    0.70912375197197
O           1.57708096286367   -1.10127067326177    0.81773646808617
H           1.42851906227904   -1.19677372829924   -0.15325623089607
H           1.55966003002915    0.33276824764222    0.98584177587146
H           0.74129976580821   -1.42575377561634    1.21366895942387
