    19
        -40.92343644
S          -0.92216817249799    1.19118295790520    0.75919775836438
O           0.40002550702330    1.41615551367400    0.19665827544107
O          -1.88211973380923    0.75817970613990   -0.23387112793167
O          -0.87505339086194    0.28225475522890    1.90535159920680
O          -1.40712164799042    2.58231797040532    1.31719180398137
H          -2.26520393397626    2.37666592937035    1.67480892070471
O           2.27978820385218   -0.46359078842337    0.43006854847372
H           1.77657090729680    0.37391702293339    0.50500094926944
H           2.44800272613043   -0.57097920069088   -0.51260361791683
O          -0.93244869433880   -1.52953206901018   -1.07490340682066
H          -1.49548595760630   -0.75864081280725   -0.82428590623782
H          -0.23915553743327   -1.13522196398709   -1.64459057832366
O           0.90222358099425    0.15327845740451   -2.08388184495058
H           0.69480027790395    0.74105349781085   -1.32409449172228
H           0.68143688070786    0.64833514688834   -2.87395810424869
O           0.22467435117259   -1.79993823123878    1.11522341294718
H          -0.26235469232831   -1.00401855812026    1.58699134041666
H          -0.28124547604310   -1.84576984634906    0.17417459630657
H           1.15483480181982   -1.41564946712729    0.90752186315315
