    19
        -40.91966064
S           0.39606204865584    0.44655884857302   -1.60494659945739
O           1.33302163542479    1.27464383333167   -0.86175228444413
O           0.84615718813912   -0.95372817335826   -1.63154619773934
O          -0.96238318935712    0.56181346903418   -1.13520270599608
O           0.42639095810760    0.93945483447458   -3.09958447583727
H           1.34422557055039    0.84800110848483   -3.33633688712814
O           1.34742739318230    0.38473211861394    1.53991812675713
H           1.38465494861521    0.80913588939162    0.63386125080999
H           2.23244018435236    0.44833918394509    1.90397241628062
O          -2.06752777830100   -1.18553295600143    0.63071405230269
H          -2.03741065375614   -0.38705265159053    1.21195977510628
H          -2.07690395531186   -0.79916531444096   -0.26071565016661
O          -1.38057066707697    1.20669223303899    1.51471330554147
H          -1.28871259145037    1.33551514862364    0.55644500255372
H          -0.48115066958912    1.16528002475166    1.85933049972394
O           0.34729230249880   -1.81167458600409    0.62726527783524
H          -0.71585021312324   -1.66135783777269    0.68512759639309
H           0.58772915505496   -1.56889409203603   -0.38027671962039
H           0.76510834348845   -1.05276108102439    1.14705421699769
