    19
        -40.92218953
S           0.40303557795261    0.33284668326094   -1.03297834146660
O           0.20610884986373    1.45847362235406   -0.12535414008945
O           1.54923971961702   -0.48220456940130   -0.63081661552996
O          -0.81009522458662   -0.47140471703031   -1.13949628782502
O           0.73890384983330    0.89730444802705   -2.44422847307602
H          -0.05905236447592    1.42706949311989   -2.65099825320622
O          -1.06486800318380   -2.25586395427609    0.72407047536128
H          -1.08242648409175   -1.57098798782501    0.00232869286397
H          -1.09722277592492   -3.10741590274511    0.28280190884835
O           0.58283259495728    0.87618800665432    2.37289792754443
H           0.36646558540746    1.18193996641424    1.45096015854791
H           1.29605671348690    1.44050228518389    2.67912854623883
O          -1.64034923905064    1.96033988309270   -2.07925247537719
H          -1.27662504802284    2.28315815268683   -1.24411141994494
H          -1.92580865484691    1.05658508039246   -1.89076503165798
O           1.16189437698178   -1.45717632088355    1.60398037538010
H           0.24740380738777   -1.89256516317099    1.38950964729849
H           1.46032939847297   -1.10894630946743    0.64532377068348
H           0.94417733048365   -0.56784270611764    2.08699952538983
