    19
        -40.92048087
S           1.58411219412985    0.24355197074199   -0.09521803629179
O           1.28819683065072    0.37162035054410    1.31719991204920
O           1.59319345118552   -1.12035990414884   -0.57817336808095
O           0.67879028558521    1.08234482498312   -0.89565510681069
O           3.04363133516953    0.81141913967675   -0.32283851938945
H           3.36756235982184    0.29929784781494   -1.05806994765731
O          -1.04008023576184    1.69767704925920    0.97010496319484
H          -0.42076197681131    1.67616609066624    0.20018162147205
H          -0.44788293818842    1.58444022266943    1.72400921469752
O          -2.05308263584519   -0.55173219374528    0.44027832773346
H          -1.76408051534971    0.40615224987182    0.74702115733566
H          -1.87658474161927   -0.54036830243796   -0.57230134367446
O          -1.26441034103521   -0.28304660477817   -1.95491537939451
H          -0.43052122425041    0.17686404610776   -1.67926137766859
H          -1.72328893376541    0.31767617098375   -2.54591957438500
O          -0.08887862759301   -1.85356196751805    1.27886252877228
H          -1.30690268295251   -1.20015958930203    0.83716242911371
H           0.45555497444582   -1.98885985378605    0.47473685732715
H           0.40543339618715   -1.12912153464772    1.71279566428525
