    19
        -40.91907688
S          -1.41346997168139    0.19856633636622   -0.86210913263929
O          -0.05415045550214    0.38859698532727   -1.41152976715427
O          -1.97224890107511   -1.07413250758206   -1.25426529088306
O          -1.43077280190135    0.44423915660340    0.56143706440652
O          -2.29569426985089    1.32587149618093   -1.53793484831946
H          -2.55327011376874    0.96851960710030   -2.38380284554052
O           0.60290163784379    2.12571648325969    0.59742703986826
H           0.65716068505158    1.97957398819394   -0.35601401570552
H          -0.24003076326701    1.69117994060572    0.83439898661230
O           2.29110985419600    0.34080105094119    1.46840402717788
H           3.18424990070047    0.67022142277819    1.35325583153795
H           1.67303346263081    1.10037868729303    1.25893204301212
O           1.36992084157430   -1.27419547471805   -0.24287948841447
H           0.84028511778284   -0.58846475872901   -0.84472150203551
H           1.82207299314449   -0.68930515675313    0.48870475345765
O          -0.74630465313196   -2.21742187635514    0.76167529870333
H          -1.31683709654000   -2.06831126778482   -0.02538649815159
H           0.60123454809411   -1.80052656856458    0.22102934574030
H          -1.01919000431498   -1.52130754415646    1.37337898832608
