    19
        -40.91245780
S           1.05575697728127   -0.16054869674531    0.33724383788760
O           0.62150321156336   -0.30597531233734    1.69946915883485
O           0.22230480073268   -0.97944024220921   -0.58768467162096
O           1.06974994231047    1.22572006785271   -0.11994118088720
O           2.51385746834195   -0.69192803131024    0.18676663264588
H           2.44963558428673   -1.66560855607913    0.28154654670042
O          -2.56768627623955    1.40319190251251   -0.36879261858471
H          -2.07275734092481    1.57700325025559    0.48276504853654
H          -3.13377959058627    0.64740859892646   -0.19911160730486
O          -1.09768102851389    1.69471048642348    1.76608484157505
H          -0.48405579454168    2.42555593290924    1.65820206272566
H          -0.52682661969514    0.90253383751731    1.87745111056142
O           1.61836246680057   -3.17305603677581    0.03727205874622
H           1.83630738532774   -3.67375588437891   -0.75257410223317
H           0.85988356960543   -2.60636237225098   -0.18835082421761
O          -0.61710797752041    0.91412696552308   -1.88371928299374
H          -0.38088551610298   -0.05083848140450   -1.53092626124964
H          -1.49633783697454    1.16412943548297   -1.37276884953689
H           0.12975656494568    1.35313312619223   -1.32293192961180
