    19
        -40.92079121
S          -1.10915497181877   -0.79528735655486    0.58706518188541
O          -1.13722675193371   -0.71410332212279   -0.87458100085522
O          -0.58829593297818   -2.05163251612030    1.06083425004213
O          -0.46375815262460    0.37575457677264    1.16421190364918
O          -2.61802071901362   -0.70623668088910    1.05662387359162
H          -2.98403476165264   -1.54047276968167    0.77989244594169
O           1.93171465258334    0.49229520345550    0.00078346762078
H           1.21792618417335    0.52393577494616    0.66964084711182
H           2.10246545171971   -0.47191983217198   -0.11556182631974
O           1.79177940617634   -2.13829727086783   -0.08494822463951
H           0.88926290288208   -2.19965178621485    0.29662611410859
H           2.33223540428481   -2.75906692016267    0.40735725249238
O          -0.90007950421396    2.63684657561745   -0.09152170469026
H          -0.89561172764758    1.84697183458800    0.49919769950968
H          -0.44608601607397    3.33596475746388    0.38322016850487
O           0.28433784627792    1.10575437617381   -1.76599437254705
H          -0.18115635983107    1.87489016307930   -1.29478922763485
H           1.12214076607025    0.88920519217658   -1.14231034263461
H          -0.34843770643213    0.29505002050953   -1.53574647507877
