    19
        -40.91930418
S          -0.74856151169867    0.44721707281547    0.74674168802634
O           0.63565848316653    0.82842558239914    0.55665590456185
O          -0.95343788919135   -0.89236088398045    1.18887478178067
O          -1.39850375775569    1.42725788400602    1.74204258194426
O          -1.52198921762221    0.72716640228314   -0.54808235887689
H          -1.23030908337836    0.07635511365379   -1.29194136890112
O           0.68768217978503   -2.99249651367180    0.66029909562465
H           0.11513406084896   -3.68092470990007    0.31627846152852
H           0.09713637069088   -2.30172689411636    1.00909414986475
O          -0.62179985412913   -0.83170104423435   -2.31246710215887
H           0.28194287762498   -1.03529378434220   -1.91521114056773
H          -0.45827155999845   -0.35651392425420   -3.13046393685197
O           1.61662293183544   -1.14578997839520   -1.06782854228131
H           1.52285691009225   -0.38775877024911   -0.46958331222940
H           1.48654486805785   -1.93214501387548   -0.49768874174589
O           0.15756051169549    3.38012573608634    1.03950757074238
H           0.70592869957202    3.75395291865776    1.73392629630441
H           0.62956539225081    2.59928910873496    0.69395538585662
H          -1.00376041183431    2.31692168835075    1.54589059736138
