    19
        -40.91930419
S           0.26850631047657   -1.04291784998423   -0.39495585440660
O           1.57174199302702   -0.78946533407718    0.12399041246702
O          -0.32137294508076    0.05031102278976   -1.13950672695364
O           0.30254748525483   -2.29245599755482   -1.29571334171287
O          -0.69894989046036   -1.46243156668089    0.71914832853402
H          -0.75463581617288   -0.73128630457017    1.44331681769430
O           2.54349377441516    1.64754080410290    0.83008602722324
H           2.89074546385978    1.53418416566017    1.71701280452337
H           2.34786357086427    0.75220251666313    0.50189382204704
O          -0.08618141343296    2.17447510943672    0.57243316319411
H           0.88788257194739    2.22650024568042    0.66680014466960
H          -0.23041207650752    1.61050555797803   -0.20376228368676
O          -0.84791570781372    0.45928721175989    2.34323285664469
H          -0.55422718118773    1.21323007626255    1.74207109301173
H          -1.76329512926177    0.63574844226609    2.57270864734082
O          -1.80538619081327   -1.55799999688581   -2.61749748988736
H          -1.69099100871261   -1.43445627424560   -3.56313165213815
H          -0.53269386775322   -2.26466951226379   -1.83166181632112
H          -1.52671992263946   -0.72830231635499   -2.18646495225219
