    19
        -40.91930404
S          -0.31533163965726    0.49177461163904   -0.98723906918025
O          -1.12601005229605   -0.66407283879701   -1.18395310116796
O           1.03366840593603    0.22793935313533   -0.53110578321842
O          -0.24454771640072    1.30449225203427   -2.29417141006239
O          -0.98208714648732    1.47712981206536   -0.01888334974256
H          -1.16221946493850    1.02534641750063    0.88954501318506
O          -1.23932948067065    0.29608792481204    2.19304249905078
H          -0.52669952519126   -0.40957930770050    2.09225021723643
H          -0.95862066039212    0.86486958539789    2.91370092270226
O          -0.87259862869772   -3.01110287162658    0.16168534836180
H          -0.97805955108490   -2.26890034741702   -0.45926053658925
H          -1.75373697430841   -3.21642719178354    0.48033469633065
O           0.65504497499334   -1.37257460578487    1.65855117503500
H           0.21048189824354   -2.14230205434146    1.24594789827113
H           1.03744056196761   -0.87977451566554    0.91543766554720
O           1.99992790315101    2.42430338613423   -1.63357613088499
H           1.95729309907055    1.66227887662283   -1.02577940658606
H           2.73955482543947    2.26827303258782   -2.22629723443687
H           0.52582916130801    1.92223847121053   -2.19022940388362
