    19
        -40.91930401
S           0.38314485441114    1.08073174537210   -0.01607732443645
O          -0.77750941233393    0.57419702731093    0.68673983244189
O           0.32963732955247    0.96678687966367   -1.43598428726338
O           0.59497969874582    2.55475583746974    0.37881509089154
O           1.63848758801846    0.40197965321862    0.54668995191647
H           1.66132000603456   -0.59312566953018    0.27953870049424
O          -1.06326712303289   -1.95644691926496   -0.31912363266619
H          -1.21807561622797   -1.75981888607135   -1.26669115283896
H          -1.19841441775319   -1.10984146830718    0.13510573059980
O          -1.02224375459486   -0.94415551839316   -2.81538749505335
H          -0.60453655764396   -0.15094010858513   -2.43579964348093
H          -0.38499140629984   -1.30906375489333   -3.43248790876670
O           1.50216179503878   -2.04122665217201   -0.05744694822970
H           0.50712743751134   -2.12629079705463   -0.19479794544867
H           1.71997738553045   -2.58917297343236    0.70009990435729
O          -0.44469981600457    2.21256452821584    2.73047393875913
H           0.35384310027621    2.61662417071142    1.34006654805247
H          -1.21807465745831    2.74559846561293    2.93145862685867
H          -0.75886646376578    1.42684445013498    2.24480801381289
