    19
        -40.91907728
S          -0.95502819024841    0.85848370820390   -1.06367651778736
O          -0.60437338079154    1.46595323683835    0.19951587373038
O           0.05035485594940   -0.15157215368573   -1.45679743091810
O          -2.29561107547087    0.32414395907936   -1.11609458461497
O          -0.85954173136549    1.99071970008073   -2.16602647208319
H          -1.41989278383315    1.69366985094400   -2.87829943678634
O           2.02740300769862   -0.94965425107514    1.58582260868520
H           2.10735730726230   -0.09375443645697    1.07207281812710
H           2.86542013136337   -1.40687214712720    1.49547624416798
O           2.00189950165882    1.11113436997982   -0.01000796808910
H           1.13807212351441    1.50048249120663    0.23118398913207
H           1.81557710988649    0.68693297955623   -0.85768741635509
O           0.01940439442881   -1.85464957508416    0.34722907952911
H           0.05660273495798   -1.22923167907277   -0.50212313412916
H           0.84374017602798   -1.57598532613106    0.91696660196141
O          -1.98497762932255   -0.64851712682133    1.29978038471156
H          -2.38095911138620   -0.39432222571462    0.43638285513436
H          -0.82508439337135   -1.50356513610983    0.84309442224758
H          -1.60036304696864    0.17660376139249    1.62318807331712
