    19
        -40.91893347
S          -1.68655123467614   -0.32922961174189   -0.24048536429562
O          -0.70214665651749   -1.34075589921222   -0.57144098303221
O          -2.26530124515005   -0.44554609155453    1.07390671698435
O          -1.16334364600272    1.02085849430332   -0.49847041014648
O          -2.87654059808854   -0.52601069972329   -1.27279373049205
H          -3.62555728372907   -0.16734360621372   -0.80638197208979
O           1.76587109565225    1.18816397306391    1.62081015316940
H           1.21951455623800    0.38712421793723    1.84363864521014
H           1.41310765348085    1.90694442829060    2.14904874288690
O           1.54626863641358   -0.92962356169467   -1.79063999639155
H           1.41367879757369   -1.07790419243110   -2.72872230262594
H           0.70776558924668   -1.21320960930586   -1.34238637213067
O           0.16543430506081   -0.85130449130040    2.01990921808978
H          -0.78185493115711   -0.65944251619683    1.86611330018611
H           0.36349975310275   -1.56336220043240    1.40414208470088
O           1.24167206447608    1.40542726738362   -0.84355286627118
H           1.52019161484732    0.51859088128867   -1.27583525937309
H           0.18018463946153    1.30452217628836   -0.74724478079646
H           1.56410686977090    1.37210102124399    0.14038516641489
