    19
        -40.92218955
S           0.01656528641422    0.98069068661751    0.61507333030348
O          -0.66516219523741    1.13786594686386   -0.66565893668265
O          -0.53772132824526   -0.13946056462093    1.36872581141701
O           1.46166402493357    0.84008984340367    0.43646775828787
O          -0.19889727566981    2.28005122382454    1.44466185124686
H          -1.17455588140928    2.31445543041533    1.52776903869186
O           0.27696044983482   -0.36585327014895   -2.55609589981430
H           0.58083983715029    0.22529455515978   -3.24834588284635
H          -0.18523450011796    0.20797044095530   -1.88726973029262
O          -2.69798163569790    1.52031574699485    1.12505197916763
H          -2.48183500128183    1.48602938065305    0.18392783426944
H          -2.39752493359877    0.67236343147861    1.47799009128746
O           0.48237816542961   -2.44011885830508    0.74485825730736
H           0.87912807792768   -2.78827180592192    1.54631450254983
H          -0.00424447372733   -1.61513593107208    1.01461662334282
O           1.96569397408157   -1.19185553882515   -0.87184764417210
H           1.34796879517942   -0.97574066267851   -1.67391468792827
H           1.89675462129876   -0.29568977842219   -0.30435123992088
H           1.43520401027540   -1.85300028928619   -0.27797304486417
