    19
        -40.91930408
S          -0.40506183354234    0.34096703394206    1.01765119585820
O           0.76714426461096    0.83988554770515    0.32880336071564
O          -0.35367497873410   -1.03593771257064    1.38293408626859
O          -0.64419990451033    1.20214749251532    2.27253488810617
O          -1.64549308172990    0.64179535075707    0.16675654292394
H          -1.64961899261252    0.06102034785684   -0.68448556471464
O          -1.46339194610475   -0.73452972391933   -1.93703411558780
H          -1.66727070122053   -0.20020513921360   -2.70813585773113
H          -0.46754752162446   -0.88966390516290   -1.95253564016491
O           1.09920142311864   -0.94573540149320   -1.72061200656384
H           1.24751649775516   -1.77379181182316   -1.21792446131602
H           1.21934269096893   -0.23610588865787   -1.07000519560868
O           1.03372842783227   -2.96390734864532    0.06318060045494
H           0.60130492734848   -2.34474240591117    0.67734311495994
H           0.40407814493832   -3.67218926664226   -0.08509632484285
O           0.41121287130143    3.31028713708344    1.19079192119022
H           0.73827100999971    2.59233479013287    0.61679031930081
H          -0.40095714200283    2.13031822112418    2.01719892604741
H           1.17541583420108    3.67805270293694    1.64184421070344
