    19
        -40.91930405
S          -0.92052958890424    0.34097496624447   -0.59297107050811
O          -1.26504779560642   -1.04099668654913   -0.65132443248900
O           0.46668363381897    0.64291717500880   -0.87917710977126
O          -1.81007869355002    1.13902773612602   -1.56519456485258
O          -1.28905299012177    0.94608414227509    0.76760852836118
H          -0.81270526136046    0.44054356762418    1.52892300543091
O           0.04110442273312   -0.28437115426324    2.51967281283017
H           0.79297630555016   -0.63422644653007    1.94661923958300
H           0.43627693097825    0.33353064037318    3.13907524152670
O           0.42306527699899   -3.10801161584281   -0.14014726957102
H          -0.03890862370548   -3.66130547566508    0.49274168577831
H          -0.23080661677764   -2.46082050081014   -0.45824128409274
O           1.83251363134441   -1.01979755470076    0.81442567553590
H           1.53413500839736   -1.89506266553596    0.48993789719328
H           1.58617298901718   -0.39787562626171    0.11169669287121
O          -0.08559265080002    3.06528998420963   -1.77334134116371
H          -1.36041160146916    2.01556928730021   -1.68949600429674
H           0.45211620062327    2.34003735533867   -1.40349769465862
H           0.24808941288956    3.23849286153124   -2.65730999782034
