    19
        -40.91907714
S           0.25879528843933    1.45564728838397   -0.77267912291302
O           1.01899102419646    2.36200699113331    0.05581357754291
O           1.00606350168828    0.20932714594365   -1.04438542661465
O          -1.06523546246968    1.16140296898813   -0.27485313048461
O           0.08097390029992    2.14938032043989   -2.18451531986004
H           0.88717720698126    2.63888004864994   -2.32549832901534
O           1.15745852436377   -0.96298246070624    1.13704568889223
H           0.39306546003732   -1.66343598944325    1.05572261606870
H           1.21163058815583   -0.51307369054274    0.18380393929443
O          -0.78008403046549   -2.53029268604758    0.71880410563530
H          -1.11703255889404   -2.08304229644805   -0.11138404855276
H          -0.59028429519327   -3.44085113916311    0.48587715007549
O          -1.31456548904390   -1.18747145204362   -1.45054051913307
H          -0.42677662763842   -1.04064531833573   -1.80161838860820
H          -1.53940059657948   -0.31936843117001   -1.06093514897213
O           0.16300975040260    1.10520362767795    2.19195710376304
H          -0.74732109486738    1.09173959783157    1.86909296438069
H           0.79632586418152   -0.18610780736018    1.72739863445843
H           0.60720904639992    1.75368327219139    1.60089364404932
