    19
        -40.91373467
S          -0.35229263109625   -1.15237946931600    1.15578804155551
O          -0.57872123090927    0.21864952251478    1.52841506254906
O          -1.62174563048572   -1.77688955153642    0.59769061768887
O           0.75941684728804   -1.39398862120825    0.29635324955869
O          -0.13082402744761   -1.96648499746002    2.48004742532764
H          -0.81963051905293   -1.72880826716064    3.09878265006026
O           1.29201402583370    2.14255058503733   -1.48213191402125
H           1.68764701475312    1.77779893760197   -0.66002901738206
H           1.43419462487252    3.08996063730329   -1.45692460978516
O           1.98213503966041    1.00217365240583    0.85735769830757
H           2.03774299962546    0.08114599622845    0.57174974202055
H           1.12941389624541    1.05667183380006    1.30966737376878
O          -1.14788938856098    1.10871493876025   -1.05298161795514
H          -1.09132516946523    1.00607676384504   -0.09353734419885
H          -0.30498620017818    1.53218793080865   -1.33115204780080
O          -1.20036482670217   -1.36312542283336   -1.80346621214651
H          -1.55657951822558   -1.69713140219517   -0.46274648029234
H          -1.25757898959597   -0.36516798020016   -1.70549782534268
H          -0.26062627660893   -1.57195508643901   -1.84738480191331
