    19
        -40.91907714
S          -0.93575673157500   -0.00437763396478    1.38027917942536
O           0.53423746127446    0.15245958634387    1.35522855787379
O          -1.60242055671028    1.26301626745335    1.56727167586438
O          -1.39153977844085   -0.75412411824267    0.23253699213542
O          -1.23721517109341   -0.88566634093422    2.66014525883873
H          -1.26473153017041   -0.26939375240269    3.38744285585649
O           1.64686227144472   -0.63408834551157   -2.10070812834345
H           2.57489801889225   -0.80997046439090   -2.26623140194494
H           1.33568545892479   -1.31949776198591   -1.44011142767121
O           0.83366609159921   -2.12745043265424   -0.12518481949893
H          -0.11598238616397   -1.89607224647329   -0.11722193138048
H           1.17919340701016   -1.63366847378511    0.63017504958578
O           1.03260076270287    1.39907849431298   -0.73158770847005
H           0.92114731161305    0.93406470920642    0.20907468557359
H           1.32307098197026    0.63309901141687   -1.37242058790559
O          -1.45873048732059    1.70302194846589   -1.01367778894246
H          -1.66653740095216    1.79695194625411   -0.05701876118037
H           0.05090344103859    1.64338091093428   -0.97465737039902
H          -1.75935114406873    0.80923670597790   -1.22333432942919
