    19
        -40.91904990
S           1.09326438423892    0.35770159699010   -0.20185946065917
O          -0.04867854522561    0.30051015982134   -1.23489459786733
O           0.74616216329263    1.36163688379192    0.77229727956832
O           1.36738210436651   -0.94920489287039    0.29881221427998
O           2.30418484018547    0.85633092353251   -1.02915910123074
H           2.06435761451960    1.77724578407234   -1.29985061073174
O          -0.47151925300581   -0.43878518811152    2.41567021234564
H          -0.12842454067909    0.35610262208328    1.97706481294604
H           0.27059462628923   -1.04949229132078    2.43646974929989
O           0.97628287750878    3.08205265514116   -1.29315034001301
H           0.74167876016451    2.86179051568502   -0.37748889471096
H           0.21200663272039    2.85822007937589   -1.83125215626235
O          -2.25771388748137   -1.70067383281657    0.85445732526432
H          -3.02652382994639   -1.13512484418208    0.76866198077957
H          -1.66104955430882   -1.26369875154394    1.50304504791912
O          -0.64683675211436   -2.11598170957898   -1.19161942606764
H          -1.34725768235304   -2.08999819162185   -0.48999887277355
H          -0.35263687524907   -0.69868713608091   -1.34365419685008
H           0.16472691715781   -2.36994438225187   -0.73355096531970
