    19
        -40.92044703
S           0.98853070940923   -1.22348202396184    0.27453896076129
O           1.46101089774940   -0.12062509310486    1.10831800934800
O          -0.20423028818743   -1.83643609438905    0.82601609438056
O           0.83789088509414   -0.81246686934828   -1.11077770228785
O           2.11369186982688   -2.33678907642656    0.28307743217817
H           1.95466677176717   -2.80984611643924    1.09428275928474
O           1.11066180873993    1.84351098714539   -0.52543148139599
H           1.38144617277177    1.20490885631782    0.18615039558526
H           1.29146287133259    1.35265839787882   -1.33538446443089
O          -1.60983220367282   -0.29198951187925   -1.75967525238447
H          -1.64531891055560   -0.20781094225554   -2.71440861098996
H          -0.71115894239800   -0.65036067519483   -1.53711384863457
O          -1.09045413670273    0.31761822887712    1.94463250599985
H          -0.95985113216836   -0.59609003885623    1.58175398308453
H          -0.20160585923060    0.55875499373061    2.23802362762075
O          -1.37359080320878    1.65593762545360   -0.15597301880506
H          -1.36943102260529    1.15378020785637    0.77528280303392
H          -0.35989556644366    1.86921830321109   -0.33234426444524
H          -1.61399313152108    0.92950885138208   -0.84096791789931
