    19
        -40.91898903
S           0.69431397504865   -0.00610770756819   -0.85446775697197
O          -0.10445285713762    1.20172543203895   -0.85939596220925
O           1.23487765870251   -0.27385753197877    0.48600129702852
O          -0.06356227194546   -1.15910651329230   -1.34606198799605
O           1.90025914868132    0.16280620192393   -1.82029166562858
H           2.50786316984534    0.76336912406825   -1.33878035522329
O          -0.73346087664943   -1.05654734363300    1.98249274881111
H           0.05330581189753   -0.70428828863591    1.48516742192798
H          -0.42418031332596   -1.83738249703688    2.44664647049830
O          -2.65395415475722    1.11410737147857   -0.47198424658451
H          -1.70427846228899    1.26420715511923   -0.73016041289069
H          -2.80210493934607    1.65079259990029    0.30993524966031
O           3.24267132465350    1.38513801722885    0.08835005130525
H           2.53859141742844    0.86792214843537    0.52645377722387
H           4.07768507977504    0.98354971583805    0.34001741025283
O          -2.17447499451061   -1.32976706612733   -0.09143125158205
H          -1.73143555072769   -1.30002087479788    0.83288886536503
H          -2.54210340916443   -0.37105763630664   -0.25317314564689
H          -1.31555976618276   -1.35548229665587   -0.73220651733733
