    19
        -40.92135403
S           1.15026233022606   -0.81661345599113    0.66752545026895
O           0.08527729541295   -1.72781965644849    1.02440619882105
O           1.56427526189311   -0.97550883681976   -0.72723080970252
O           0.84622544788606    0.57132378869478    0.97797279344504
O           2.40408048868933   -1.19404884554411    1.54830702732193
H           2.49824838364794   -2.12891510745475    1.39369826390816
O          -1.77451775998259    0.93061869395721    1.47049725210308
H          -1.99385950956944    0.57379845371928    2.33293226967046
H          -0.80041098462621    0.89791600755266    1.40111902004053
O          -1.91698005689505   -0.88712355797600   -0.44289878842159
H          -2.12439958664141   -0.12864559172908    0.15373320291295
H          -1.27982720864802   -1.41954122026685    0.08923909987691
O           0.44055367524009    2.16014961883835   -1.09755540129791
H           0.62200294859909    1.70603696967242   -0.24336095199728
H           1.27498583804037    2.52799772273116   -1.39426841002529
O          -0.28950652810241   -0.06302689057760   -2.11584927682471
H          -1.10917299886380   -0.40909205435904   -1.48239257965719
H          -0.12656979358991    0.91300660567237   -1.87699197686967
H           0.52933275747607   -0.53051265206852   -1.67888238899546
