    19
        -40.91907734
S           1.18649466837788    0.78192093050338    0.87229842650850
O           0.90920614153249    2.19467752836616    0.98655067924876
O           0.10396237529049   -0.03487565789696    1.46121465527784
O           1.48968109771704    0.34063825537826   -0.46961694813174
O           2.46271220591698    0.48227093043005    1.75941626509733
H           2.39511712148584    1.07591262329282    2.50273537725676
O          -1.55199436134089   -1.81841957158734   -1.34538327442053
H          -0.64599274405733   -2.05086817517591   -0.98774671210135
H          -2.12445803655166   -2.56407677788289   -1.15619496038565
O           0.73117334921466   -2.16528386424814   -0.13618197410375
H           0.50170730061540   -1.90651217229113    0.76597999419819
H           1.21783775515683   -1.38475509949574   -0.46691522732960
O          -1.86137009524591    0.30745649475933   -0.01463433552418
H          -1.83525912756869   -0.54835824529159   -0.60498597299354
H          -1.11147272402511    0.15510046958187    0.71181140890832
O          -0.51615836053478    2.07842250825256   -1.21101797636089
H           0.15837732311836    1.55931536351660   -1.66792975562173
H          -1.46279212378511    1.08193620631206   -0.58420106426973
H          -0.04677175531895    2.41549826348447   -0.41519860525127
