    19
        -40.92343661
S           0.42094255416635   -1.23226923868490   -1.07257089504172
O          -0.32241461260380   -2.01429907601918   -0.10772577800308
O          -0.46373565578461   -0.52223675318534   -1.99736820164990
O           1.37613986625735   -0.33303010293131   -0.44462416375324
O           1.26607249643585   -2.23213448718001   -1.94898984147840
H           0.59603155910760   -2.77997783023222   -2.34569637820165
O          -1.53575857227849    1.30010221333401   -0.69326197002372
H          -0.69676364546935    1.85459155709886   -0.48121500470990
H          -1.18259412741702    0.57961339040569   -1.36322700033743
O           0.75529036970746    2.23963554108632   -0.10463637357408
H           1.18546253168630    1.40949678075749   -0.39788556968332
H           0.87175394780649    2.25784203241797    0.85174077700307
O           0.86592052761971    0.29225347213703    2.08439989514892
H           1.26583771512664   -0.29114604095265    2.73072080674632
H           1.15549038891139   -0.03330295625333    1.20356896413886
O          -1.64155628962438   -0.22664647190546    1.27301626251389
H          -1.32081760336208   -1.04070494606136    0.81634600917447
H          -0.87342012535524    0.05445944255986    1.81304391196633
H          -1.72188130498602    0.71775346362277    0.18436453979096
