    19
        -40.91833249
S          -0.68150690638867    0.91320321077862    1.29610787885622
O           0.51098047482564    0.09109799964776    1.35608845557595
O          -0.43870786880879    2.29840324573608    0.97859111409475
O          -1.69659205763397    0.31789675780138    0.41284979927622
O          -1.30976653891912    0.87892896697261    2.74992302848977
H          -1.93502144467941    1.59717356620815    2.73458480506912
O           1.46546127276096    1.65687731949942   -0.71976725188072
H           1.98081233623396    1.17643649688334   -0.06535650303185
H           0.74533854627297    2.06590376680982   -0.19421106703001
O           0.58624169088422   -0.09841748689656   -2.45078036589124
H           0.96004942601834    0.57817067693913   -1.81996531337375
H           0.15583761162519    0.39980481164143   -3.14804141547824
O           0.60545283390451   -2.42401000035729    0.74120881655890
H           1.51778288323337   -2.60564787294823    0.50631268741872
H           0.59429684133927   -1.51808965106877    1.14381722043722
O          -0.97047711479368   -1.52389040318085   -1.03800324763548
H          -0.34879790277243   -1.00974211053650   -1.67874402198995
H          -0.36660817991299   -2.04617807606497   -0.39592841625934
H          -1.37477588325877   -0.74792121807493   -0.40868620343110
