    19
        -40.92315387
S          -0.77720673289978   -0.39032032392060   -1.45856098226754
O          -1.47142237654091    0.10943219772106   -0.27015700177847
O           0.10267734386463    0.64845615317565   -2.00081415831477
O          -0.11242145520761   -1.64086332406015   -1.20945727545562
O          -1.87087507044085   -0.63170099002656   -2.56546494325899
H          -2.02795178287510    0.24683473812486   -2.89701621152624
O           1.76301994573933   -1.14133447181065    0.55756436497447
H           1.24330191367695   -1.51904269292016   -0.18785557185220
H           1.12154624745026   -1.13925567860316    1.30011559952346
O           1.71410576466437    1.23312392127066   -0.20093699920062
H           1.13363707408424    1.06964218013469   -1.05481236721659
H           1.89054321020487    0.24119766674042    0.15484961838054
O          -0.50950526924592   -0.95546493934619    1.96581305168715
H          -0.91046804877634   -1.79185550533924    2.20634307001862
H          -0.96645639433341   -0.66055461083842    1.14697611294948
O          -0.24859758983659    1.88759413630115    1.27597325751274
H           1.04020354330229    1.64424321054611    0.45864661683629
H          -0.24720821002311    1.38274370553330    2.09607922454992
H          -0.86692211274198    1.40712464771581    0.68271458381580
