    19
        -40.91505804
S           1.39284728422495    0.52514071665575   -0.18233885940296
O           0.45758263157304    0.23331645668121   -1.24968962108668
O           0.71566876790511    0.18921308415229    1.16676287104776
O           2.65386387319419   -0.11324121399984   -0.27270417024321
O           1.53868399911114    2.06429423518715   -0.08753068419588
H           0.62708987285409    2.42428649138407   -0.16790352350517
O          -1.02868325788588    2.31195429021350   -0.72509593938043
H          -1.25551253141052    2.88220610875299   -1.46333306129952
H          -0.70330273041730    1.46837581306650   -1.10360562754009
O          -0.88383615407670   -2.06600399045595   -0.61683860273965
H          -0.44619697706440   -1.37193745088312   -1.13340530603753
H          -1.56903490737358   -1.59521989431705   -0.11125259346354
O          -2.09955543159220   -0.01273946598779    0.81029970433034
H          -1.27779255681921    0.10098851855643    1.30205815304727
H          -2.25830585886478    0.82961428352935    0.37386512249903
O           1.06913375596117   -2.27537473828833    1.09875230229537
H           0.86769378561305   -0.83529854665726    1.30412369421001
H           0.31264033806174   -2.42908369377031    0.46282795048730
H           1.88701609700625   -2.33049099380583    0.59500820099449
