    19
        -40.91904998
S           0.68835305942844   -0.49208413492277   -0.80372054072565
O          -0.84984786145551   -0.57361462596417   -0.76099985471792
O           1.04232522000753    0.88104672083295   -1.06230279228194
O           1.24359286389401   -1.08364872307371    0.36913921576420
O           1.06111652461802   -1.34961901626619   -2.03846970557990
H           0.68897640801308   -0.85664841042793   -2.81127945061123
O          -1.12310592298782    0.72981738583410    2.62939092806907
H          -0.25316471182220    1.07261137079867    2.32362550042719
H          -1.76801436845909    1.41047944984252    2.43185789890178
O          -0.15263636777469    0.47572461891277   -3.44638227551141
H          -1.07994993878643    0.41034952033094   -3.20225000422124
H           0.26817315535098    1.04003128618584   -2.77826609864620
O           1.23163191664006    1.49367728171064    1.58585858502243
H           1.18946888387676    1.50333489280832    0.61628006714601
H           1.81497095578588    0.76038688411135    1.80066486553610
O          -1.23741120022450   -1.63083289418220    1.45982533869734
H          -1.30864557700033   -0.81047880494814    2.01248994542956
H          -1.13525871378757   -1.05973910863198    0.12481029194969
H          -0.32057430530519   -1.92079369300887    1.54972809536879
