    19
        -40.92343503
S          -0.76409807891227    1.39651916239227    0.55891962139982
O          -0.26272511751258    1.22508064555412   -0.79546950967265
O          -1.78324995634772    0.42748764509671    0.90178795414739
O           0.32261684838571    1.41574602235870    1.53896608005456
O          -1.42986829955042    2.82362224492029    0.60598264846379
H          -1.75334506077880    2.87451705813302    1.49999838287122
O           2.03415306537423   -0.07034159309008   -1.20706065240270
H           1.34278257825010    0.62290695886949   -1.16764506718314
H           1.67574511534691   -0.74798924255101   -1.79092059459282
O          -0.59804682054057   -1.19024268709111   -1.84460918840164
H          -0.59091785908823   -0.25623661249804   -1.53909122385919
H          -1.41541809184503   -1.30735628287957   -2.33068930191271
O          -0.54155850874388   -1.87051638888530    0.75386655014839
H          -0.55745738110239   -1.91989507317453   -0.22479837216675
H          -1.14646629904691   -1.11855633451095    0.96038426097345
O           1.60192186481620   -0.68929391421223    1.22354993846173
H           1.16059872195298    0.22242480061584    1.48399389755797
H           0.74979568593510   -1.32254055047831    1.09856336004821
H           1.95553759358800   -0.51533583834809    0.27427124602513
