    19
        -40.91669110
S           0.27720921321639   -1.08606766377572    1.02264005472478
O           1.09593139656670    0.21429424099692    0.87704273789849
O          -0.99647355069824   -0.88015921785855    0.37073778414197
O           1.04472736052460   -2.19691171428624    0.57854738954619
O           0.05653883205793   -1.20429242984049    2.55113424927478
H          -0.56260284776230   -0.48118152124010    2.80394521958790
O           0.97753587860254    1.15990987570240   -2.48733691260596
H           0.88702432207425    0.18598990024199   -2.42456742905885
H           1.91662875763537    1.34432803806184   -2.43249726004734
O           0.63472646423181   -1.48242772446733   -2.00755126939374
H          -0.29127722402990   -1.73375851465477   -2.03853681264325
H           0.97606414792441   -1.85384593055996   -1.17851407144950
O          -1.66031460905835    0.78197723302561    2.38900022207329
H          -1.88576169502266    0.26824763811455    1.59858631909739
H          -1.35593624117377    1.64076681558831    2.08064748317815
O          -0.50263839310949    1.70354985587342   -0.38901864873180
H          -1.13168360832748    0.97589916361549   -0.48782293396376
H           0.51789288166590    0.92652294821508    0.41542674643004
H           0.00240892467831    1.71715902721217   -1.24186285805079
