    19
        -40.91520710
S           1.08091998341317    0.25243057173492   -0.57173036141970
O           1.44881814866410   -0.66247611550823    0.58781382641717
O           1.14702277336949   -0.46441300964569   -1.80312669319737
O          -0.19136704254715    0.89334262269679   -0.29875130809412
O           2.18508015693583    1.34525516694715   -0.51772256593131
H           1.78793558104549    2.20430227486721   -0.80733233095604
O           0.57231075509354    3.32462538280922   -1.05732766113357
H          -0.04525762025196    2.59727091232962   -0.86233677927668
H           0.45557639193147    3.98792790207384   -0.37243185332591
O          -1.16510663419789   -1.75505065238469   -1.31428185614429
H          -1.77614939987216   -1.05977754398960   -1.56752897655366
H          -0.28678923819100   -1.45056568873930   -1.60067704608014
O          -1.49016524914223   -2.42606130074522    1.28041513626194
H          -0.97428655602361   -3.22039246266677    1.42929315511770
H          -1.42905873216534   -2.23944758255849    0.31906895621549
O          -0.40800331517818   -0.20933180837230    2.18814664391689
H           0.77806070587402   -0.49393702820225    1.37345322133212
H          -0.78458012382816    0.43011548042382    1.56816842605656
H          -0.90496056493569   -1.05381710114891    2.02688805685555
