    19
        -40.92085438
S           1.29419908815339    0.54868206803967   -0.23125692731989
O           0.09349440908394    0.66183550059935   -1.20124592488403
O           0.86623208297296   -0.15849362679465    0.95032962941913
O           2.42886033047910   -0.01032854072699   -0.88739905862815
O           1.54405636150794    2.02622432834963    0.11424164284732
H           0.65838890976422    2.36125257487140    0.43998209652048
O          -1.62641734906288    0.00820576769403    1.59564622026043
H          -0.65744171212941   -0.12634171591083    1.46021729518846
H          -1.79358904434692   -0.14178859899509    2.52797055765350
O           1.23095225798646   -2.47008085113275   -0.96730288467692
H           1.51078303264173   -2.88161409000181   -1.78864347370414
H           1.79403165052791   -1.68726745500063   -0.84918003085543
O          -0.93589591130196    2.51148362569577    0.71511269826174
H          -1.30954084571523    1.68770187713490    1.09170102246422
H          -1.29901002766782    2.58260552617263   -0.17176047722363
O          -1.24708005079746   -1.43976472997323   -0.86849042156063
H          -1.58398475154420   -1.27574536246079    0.02360260813983
H          -0.51006307750296   -0.17767867217950   -1.15894052284769
H          -0.45797536219808   -2.01888761510332   -0.79458405935536
