    19
        -40.92453850
S           0.46904201624038   -1.14096430367975    0.89474014751637
O          -0.18130453298127   -0.16059444572618    1.75663395423983
O          -0.47840563934538   -1.69517778422364   -0.06615452949477
O           1.66107728793163   -0.61840640327164    0.26062497830364
O           0.93954760287865   -2.33217031638333    1.81921626953348
H           0.14272265509202   -2.65315941437611    2.23142842602702
O          -2.20682860368873    0.23592856934001   -0.06023400150693
H          -1.69270128552150   -0.60905683301267   -0.12303520170010
H          -2.11488214884174    0.48811510292621    0.86611796011417
O          -0.53711506060902    1.64420838266520   -1.31548448697062
H          -1.34353021774324    1.15386011482857   -0.86541357892472
H           0.07234520702765    1.92454657091505   -0.51157629357375
O           0.90008437373031    1.96913660496342    0.72945990672219
H           0.47436008340982    1.26765389305415    1.28308310477609
H           1.76697871931724    1.60015341428066    0.52413723088521
O           0.73758416782685   -0.36249178030586   -2.15333566923193
H          -0.00923983885151    0.88218683997971   -1.80139841859973
H           1.28050215874342   -0.49085657868486   -1.33710161349075
H           0.11976305539784   -1.10291162329996   -2.13170820462914
