    19
        -40.92217276
S          -0.36539960759199   -0.79218984777364   -1.06998425447061
O           0.96426755119330   -0.17289622986018   -0.99940915485888
O          -0.31698751435509   -2.22260649946168   -1.16983163655471
O          -1.24029067875082   -0.26007208906922   -0.04004111129299
O          -0.99353599256816   -0.25524760785417   -2.43977928468071
H          -0.83302274342470   -0.95304042725228   -3.06811821135757
O          -1.16214408090441    2.32540343406602   -0.41858208502008
H          -1.15285734800087    2.48552404172167   -1.36428473105514
H          -1.41280306915468    1.37982003832356   -0.30488118988685
O           0.01166484091319    0.00716898375698    2.31560123455173
H          -0.78363701412299   -0.10312477811373    1.76487116466407
H           0.52050419890278   -0.81394805240857    2.13494368723842
O           1.14261243467800   -2.07894750938013    1.08695926458403
H           2.00262069641953   -1.90312155500570    0.69789853585105
H           0.56314431336733   -2.31195364910545    0.34025498269284
O           1.02935504205729    1.61992717047356    0.70343803795899
H           0.22544277430201    2.13493123736797    0.35958248862894
H           0.66392061807394    1.03020429815999    1.51780118908877
H           1.13714558899115    0.88416904148399   -0.04643893608954
