    19
        -40.92136505
S           0.06870051520966   -0.36584673318303    0.99491381035964
O          -0.31715016195388    0.98317187842081    0.65856404935709
O           0.27631715869291   -1.13469460963464   -0.34169507449880
O           1.22723195586757   -0.47397371577319    1.82235212512681
O          -1.09195122429527   -1.12671774495965    1.62663860239155
H          -1.79016725242829   -1.29768726888735    0.89608399763219
O           3.36602677509830    0.57180282920137    0.59685296767027
H           2.66147225543080    0.25912622782090    1.19753189375414
H           4.08259817694440   -0.06187144984592    0.66950682857022
O          -2.62159157237168   -1.43387988782842   -0.37043528245432
H          -2.02582214025516   -1.86349743831489   -0.99091751989093
H          -2.70596294437641   -0.49529873406284   -0.67294346041188
O          -2.44054692818787    1.14342276462726   -0.90369673429410
H          -3.07228696608927    1.76181401382448   -0.53192295719539
H          -1.63244763414455    1.20640311997167   -0.35003927883067
O           1.65288093981087    0.69319756380887   -1.42199747013972
H           2.42602349394968    0.71578222540000   -0.80914654416087
H           0.84469010893700   -0.51081171604580   -0.91288873809509
H           1.09198543416812    1.42955866547947   -1.15676122488641
