    19
        -40.92453853
S          -0.13654450063853    1.09043966065066   -1.05576464542609
O           0.18772829845756    1.75184454718542    0.20289025219599
O           0.94784345744970    0.20724966723563   -1.47104614668912
O          -1.41691112476976    0.41584531481997   -1.01457238802275
O          -0.26024740366513    2.21795927034129   -2.15492417917340
H           0.58808429072434    2.65168951938655   -2.15960632354358
O           2.04589690888990   -0.17106797427076    0.84600331147221
H           1.86918929562299    0.70138412554585    1.21712961242703
H           1.79811281170856   -0.07223584860218   -0.10847535764031
O           0.06385207697259   -1.59268878754781    1.47710255914525
H           0.96902883356901   -1.09248722906681    1.32449185412764
H          -0.61505722224238   -0.82871863784441    1.70456012805385
O          -1.44274034888715    0.41296535422658    1.72270525857659
H          -2.16268226664988    0.30184125288289    1.09095906606212
H          -0.84296680252314    1.06363187194452    1.27922874359842
O          -0.56212297415471   -2.03493460545911   -0.92411963697228
H           0.24273054969251   -1.90631968053839   -1.44004245958196
H          -0.21279988591829   -1.92444784226692    0.52369856994100
H          -1.06039398346503   -1.19194997859098   -1.06021820853409
