    19
        -40.91898898
S          -0.78108316995907    0.44253758009554   -0.63487046522807
O           0.52052797539492    0.56286082961006   -1.25810907638793
O          -0.99621211653924   -0.91919504930566   -0.12502288513692
O          -0.96402528100779    1.42931314125254    0.43200993515803
O          -1.88996463155619    0.73003315368869   -1.68526933078042
H          -1.90114989751997   -0.07465744130744   -2.24546800354011
O           2.57554120613163    1.37214187137580    0.07562131541770
H           3.20503947100529    0.64961232784040    0.01924416005017
H           1.84475471208680    1.14782083394305   -0.56209233297155
O          -1.74728709282443   -1.77043457320723   -2.50289161124364
H          -2.56008490243337   -2.27839363399011   -2.44637563193453
H          -1.36787655353669   -1.74636373027930   -1.60254247143111
O           0.52601056212855   -1.21349928038134    1.95455078845100
H          -0.03260948655506   -1.19136337353641    1.13133804146368
H          -0.02188375502795   -1.61130244867611    2.63457807113919
O           0.93797641105215    1.29313720362469    1.98847799349192
H           1.71735779494498    1.41466618372759    1.31133802475198
H           0.07560147888521    1.48151729299748    1.38023491128702
H           0.85936726534351    0.28156911253897    2.13524857744060
