    19
        -40.92123231
S          -0.04242173393651   -1.17456434859331   -0.29113327172447
O          -0.26403438169549   -0.46615085265803   -1.53578146717287
O           1.16029341863403   -0.53869887311017    0.40569621182527
O          -1.17049933133040   -1.24007209383398    0.57981482496049
O           0.45790930837012   -2.60040726186176   -0.60231638320001
H           1.20476125484191   -2.46168043329490   -1.23512353726894
O           2.17421707499244   -1.42457541099332   -2.16811045592438
H           1.38641518750123   -0.87711029597203   -2.31725676369999
H           2.72845005299027   -0.94409347396776   -1.54625563670118
O          -1.59403757484751    0.41394262890873    2.66117548155038
H          -1.51895106274935   -0.32572497535072    2.02982706262008
H          -2.46066008229735    0.79934762112181    2.51523265918512
O          -1.07876919781071    1.97183989716723   -0.79008484146626
H          -0.91034429676886    1.07772210254704   -1.14622816093587
H          -0.97290593829048    2.58249677543927   -1.52226336801478
O           0.39971512964464    1.59123059747594    1.39343110311613
H           0.89817302807539    0.40778918152631    0.88387817430624
H          -0.12601893968384    1.93895054533997    0.63814515460991
H          -0.27129189564705    1.26975867012241    2.04735321394194
