    19
        -40.92136391
S          -0.50277232510396   -0.75721628636086    1.04765499561690
O           0.88386257553731   -0.39989373314738    0.84983103018212
O          -1.11573566657939   -0.14203520948315    2.19872143548798
O          -1.28134595687477   -0.53848502942606   -0.18426295402350
O          -0.53831132078779   -2.32701488217703    1.28358010057924
H          -1.30588120411480   -2.46335583513845    1.83176666223487
O           1.62349512850978    0.56210550715977   -1.47329136385925
H           1.32267373776135   -0.21887090490292   -1.98833195199142
H           1.64292894374822    0.21514422997580   -0.55221599679233
O          -0.13315971892551    2.19529462914258    1.48190191268853
H           0.79422131182304    2.06971498500157    1.70168167119680
H          -0.59931783350871    1.42423850091199    1.87788704766588
O           0.33285111483194   -1.71426406137837   -1.97784193578130
H          -0.37858420974726   -1.39313742016201   -1.39218782676918
H           0.69564438281005   -2.49275566744685   -1.55198084454090
O          -0.51910423906958    1.71079616367764   -0.99319066818496
H          -1.00496708716443    0.83139527362583   -0.78006603629280
H          -0.37162812103585    2.10147543665729   -0.05791301081454
H           0.45513049760001    1.33686430316510   -1.32174226630926
