    19
        -40.92079067
S           0.00947144119549   -0.83332745042718   -1.22932750486841
O           0.85204662357528   -0.21315193242419   -2.21911201552605
O           0.77315671405948   -1.39774397249087   -0.11493063541809
O          -1.07146130250734    0.01488046940898   -0.74624408264113
O          -0.71049696385085   -2.05743215017625   -1.92838003358582
H           0.00338974615250   -2.51528403544335   -2.36106127813772
O           0.10078946757593    1.80819670787973    0.83935862608815
H          -0.48445183768092    1.39542418239625    0.17224709796469
H           0.96410303551738    1.89619065125261    0.37171619272206
O          -2.23771180429439   -0.79478481837070    1.45939985470424
H          -1.95444628956316   -0.59313754055833    0.53641727196239
H          -2.94006958678751   -0.17659676747954    1.67104941347309
O           2.17026035181522    1.56712063406585   -0.77631687786259
H           1.77330441662781    0.87066994512190   -1.34288997992786
H           2.52111411322802    2.22981768653501   -1.37428921643853
O           0.21209600787538   -0.36128580668796    2.06158809831155
H           0.55671185975869   -0.88475696663020    1.21389660766557
H           0.23729590957406    0.64203200623029    1.70101178530400
H          -0.77510191219409   -0.59683081215783    2.06586668609230
