    19
        -40.91907727
S           0.22771304798346    0.57367744427689   -1.54854486733731
O           0.14520156509940    1.52361020712578   -0.46307553156098
O           1.57039325290077    0.31494923221485   -2.01344053175323
O          -0.48027796813153   -0.67812867905837   -1.20549319969037
O          -0.57863742575539    1.18693517391111   -2.76477599905510
H          -0.22541771791441    0.75877394082682   -3.54033933912489
O           0.68001204882226   -1.56921741807839    0.79875040910366
H           0.16937419564811   -1.31543737800025   -0.08906167161568
H           0.04757111516445   -1.26036124276551    1.56444194044871
O          -0.98213728059874   -0.66538409551371    2.47386771651604
H          -1.61438650948331   -1.27200158699404    2.86342711620837
H          -1.49181003952436   -0.08714651128126    1.83454937940943
O          -2.13324796769061    0.63698701156140    0.53130845286742
H          -2.10452493786172   -0.02420003769376   -0.17273593642101
H          -1.41055944849802    1.24664996292878    0.28375209142197
O           2.40088704614710    0.25040716940729    0.47337508077924
H           1.90764082545720    1.05005058505834    0.69838421635108
H           1.48578568680208   -0.91102655427861    0.78543854890878
H           2.38642052137036    0.24086278635941   -0.50982788546802
