    19
        -40.92045153
S           0.15582418542708    1.33418200936415    0.86734241271885
O           0.17958489526560    1.48768108309961   -0.58511366533448
O          -1.15436755926265    0.93538762904055    1.34554974596469
O           1.22191755489998    0.45773317940940    1.32181395486576
O           0.43690273692129    2.76133771840800    1.49230278846071
H          -0.43645968725606    3.12040320005187    1.61734779286706
O          -1.54130233827558   -0.03190376906234   -1.75943436813241
H          -0.98982357158129    0.64735893619305   -1.28543327826375
H          -1.55860654015739    0.22176246169585   -2.68423178557455
O          -0.16020722194942   -1.96114266703243   -0.87491960893036
H          -0.81479033324503   -1.29527157426116   -1.30477656139594
H           0.77765977794253   -1.49786648113637   -0.95967169567331
O           1.94617279360497   -0.57849374203780   -0.92801902741562
H           1.87347476799877   -0.22930590647856   -0.00253568277453
H           1.72620706095171    0.19342385933754   -1.46328075813225
O          -0.57495732995825   -1.57576223471654    1.56737078842999
H           0.30086205694141   -1.38399780124288    1.92723393713874
H          -1.00675448116590   -0.68334700461397    1.54842278040174
H          -0.38133676704121   -1.92217890600673    0.16003222078487
