    19
        -40.91865315
S          -0.84583632044997   -0.05505215030250   -0.53482704570338
O           0.13041143524366   -0.13489295876040   -1.59633419016268
O          -0.48811326500133   -1.10000190826312    0.52406138805109
O          -1.00814081873073    1.22588635806153    0.07610130087214
O          -2.21223336917975   -0.51876540975653   -1.09947054517396
H          -2.02524223665770   -1.25057024256896   -1.74224177607238
O           2.02622039321103    0.68168931058833    2.27597036115864
H           2.03710619747539    1.05540722227319    1.36770672282670
H           2.57188338580224   -0.10594425783662    2.25057175094465
O           1.77178591956556    1.58512423857378   -0.25255659428675
H           1.08039410566018    2.24663125790599   -0.15557704470476
H           1.39895442140717    0.92386404262852   -0.85550211471462
O          -1.12869574883435   -2.11692821823312   -2.84408235329684
H          -1.29878894792778   -1.92388933403958   -3.76960169164763
H          -0.37223144688738   -1.56541612039777   -2.57425605076019
O          -0.55554922451473    0.25295220060388    2.61689400281540
H           0.41611567028048    0.44261377807664    2.67703531628160
H          -0.94289252710882    1.01452378689805    2.16597755275954
H          -0.55514762336207   -0.65723158546322    1.47013100081912
