    19
        -40.92139743
S          -0.91370961769015   -0.63076301625591    0.48526661791801
O          -1.26980543196188    0.70746689866646    0.02468575936239
O          -0.20323917031768   -1.35667361798042   -0.56654414090596
O          -0.13570532426380   -0.58962175828794    1.72091858771976
O          -2.22203227938337   -1.40603338679508    0.81175929979568
H          -2.69536481895436   -1.40068095384467   -0.04526280218326
O          -2.63046434712783   -0.87819597584363   -1.73705500717328
H          -1.76160926403186   -1.28343838525013   -1.85912997474589
H          -2.44457353016244    0.03271825975364   -1.47261256399072
O           0.55207764008008    2.53136210742002    0.33548098340296
H          -0.24033898526308    1.93751053525249    0.25293151366675
H           0.78332626164791    2.79835528319258   -0.55696909953323
O           2.28082808117742   -0.66039956106544   -0.69693151801315
H           1.32818232515679   -0.95358426288123   -0.74205364517278
H           2.80124744666151   -1.46534809408558   -0.65281055908874
O           1.93688043286193    0.70982812682262    1.40092808180305
H           1.08435441411994    0.14492294435882    1.69380129830718
H           2.25115461454951    0.18869673651138    0.56739510498856
H           1.49879155291188    1.57387812036529    1.03620204384414
