    19
        -40.91905000
S           0.12047469414909   -0.18160569878805   -1.14638954797927
O           0.59603499071054    1.17875877130098   -1.11626484149480
O           0.84945978927891   -0.95209909254582   -0.02883944394397
O          -1.28892063755691   -0.36686319675175   -1.03098761046829
O           0.62481606205184   -0.86255514936239   -2.44293379711970
H           1.59072063662131   -0.65160117840311   -2.48060063603723
O           2.96502835689099    0.09982088635791   -1.82326323621935
H           2.40572431684820    0.84141120284191   -1.54189736109146
H           3.22656554630337   -0.36300618187567   -1.02248833152350
O          -1.26460288775005    0.32710104493597    2.64578569625886
H          -1.35614161411945    1.00580005138428    1.93959533752253
H          -0.55034745530858    0.62031245247463    3.21337564311799
O          -1.39526590118532    2.00318155001481    0.55016770628185
H          -2.10812268340967    1.63690148882799    0.01930785358882
H          -0.60309369932102    1.92042135065903   -0.00445214178203
O          -1.05946303057671   -1.90367959929996    1.25520888258765
H           0.13389866049826   -1.44878232606073    0.55791262222397
H          -1.19009712253232   -1.16817537421588    1.90763103728639
H          -1.69666803157573   -1.73534101147680    0.54913217880602
