    19
        -40.91907720
S          -1.15836591077520    0.21903951247173    1.17904848227270
O          -0.64575666154046   -0.10842113587509    2.48884247404375
O          -0.38090441820946    1.30536545153357    0.54582493610817
O          -1.28149303719914   -0.91091049228920    0.28709452060093
O          -2.61234764058193    0.81186954917096    1.38031337466207
H          -2.57493836476209    1.29296862464807    2.20292974044884
O           1.40336823210077   -0.19031544796180   -2.34979911047787
H           0.41870492083397   -0.00951722934109   -2.32900377419305
H           1.77695634605418    0.38543715617906   -3.01944141824150
O           1.85493974513604    0.33577776748224    0.08036908340808
H           1.77806871410141    0.09880226553719   -0.92927327544814
H           0.96621304788432    0.86074805119458    0.30097348811300
O          -1.09083550138767    0.45945358706224   -1.95975897418962
H          -0.99369794214255    1.24309489037649   -1.40336775661873
H          -1.34618618985681   -0.23161905624742   -1.31697577741297
O           1.12038636725658   -1.70026347041120    1.38192396860297
H           0.45749135918337   -2.09527420432150    0.80067670948791
H           1.72570730778678   -0.54950545440308    0.61130750515531
H           0.58268961612645   -1.21673035494985    2.04831580377724
