    19
        -40.92343662
S           0.83814519246757    1.26460590300723   -0.73716976900671
O          -0.36760718973496    2.03748943524238   -0.43528840572637
O           1.67353995509321    1.08860768194446    0.43164998915468
O           0.51985318241241    0.00473362887666   -1.39032310201718
O           1.65433916218113    2.11123698866899   -1.78545566812810
H           1.81407764612557    2.92527474649592   -1.31807015616718
O          -1.83008545818126    0.56359098785435    0.92847173326718
H          -2.01990985192191   -0.16142980474288    0.22520140470994
H          -1.32576112001555    1.29894245090919    0.38275758616360
O          -1.83085125331115   -1.17255922302648   -0.93278350428290
H          -1.47624534359556   -2.00783064202995   -0.60864338762459
H          -1.07440595066877   -0.72646077611627   -1.36740082488325
O           0.71562767612267   -2.15631622074846    0.13887374835359
H           0.77432758802907   -1.39756043728268   -0.48291717142911
H           1.57646612149516   -2.57692550602230    0.13053887250753
O           0.20091076222549   -0.34248683200405    2.05184258148086
H           0.35235769037096   -1.19075582192563    1.58469080196387
H           0.85542923252238    0.27096610818940    1.64028016978320
H          -1.05020805148940    0.16687735266879    1.54374509191522
