    19
        -40.92071443
S           0.99894819153379    1.08496948375460   -0.15028841302529
O           1.26875425204658    1.54534850118175   -1.49303320362814
O          -0.41789884107995    1.27853797866683    0.21729479307519
O           1.40473434297017   -0.27904351871750    0.09805892621259
O           1.82379945070366    2.01409031603631    0.82577408290894
H           1.85514305964020    2.85122373738890    0.37146739334182
O          -1.13568583198805    0.04273421518446    2.48773172743104
H          -1.95465419507590    0.42236786876516    2.80954317745078
H          -0.82762625742712    0.61837403810167    1.75974154402058
O          -0.40616130373609   -1.99240919066234    0.93024798263915
H          -0.74037626686781   -1.50705175011173    1.71398613211761
H           0.45275222735011   -1.55180743869122    0.73468693981555
O          -1.48381423935818   -0.71212029485407   -0.89372077675662
H          -1.12281238595884   -1.40698207486775   -0.12361603247095
H          -1.21891412340938    0.18899123232795   -0.47951117991669
O           0.43770097604206   -0.69801122117899   -2.55528062731091
H          -0.82378617346347   -0.80185943226656   -1.67962107424215
H           0.77853360980879    0.20379295417037   -2.34587513565683
H           1.11136352828232   -1.30114541422731   -2.22758625598900
