    19
        -40.91483129
S          -1.21247643584850    0.84311420916018    0.14145915735837
O          -1.84732694184270    0.90300896103108   -1.24062739400983
O          -1.27548182488560   -0.49819909391435    0.66114258235392
O           0.06739654098960    1.46675268327379    0.14365309570990
O          -2.19034206181216    1.71847716669148    0.99885907913332
H          -3.00809542466482    1.23410046455865    1.09577181567490
O           2.28238872655368   -0.15634046804676    0.63244201303111
H           1.77117285979743    0.66019465530864    0.55862982899195
H           1.94781246361814   -0.58492497938946    1.44005376531237
O           0.69228718990289   -1.33191550832864   -1.13744877915435
H           1.43898316380140   -1.01895235267534   -0.56807118317512
H          -0.07789644605964   -1.35176516363859   -0.55671897164615
O           0.61280461923840   -1.32484946030932    2.47572985067255
H          -0.13334965757084   -1.04211010465531    1.92207970865394
H           0.56607284038436   -2.28139310633825    2.53074081096133
O           0.18401193577516    0.70441123434001   -2.64352758009567
H           0.46858083788537   -0.16734246646042   -2.23249072324822
H          -1.05761401517140    0.85549127287843   -1.94702627765186
H           0.77107163991111    1.37224207651866   -2.27465078887339
