    19
        -40.92113588
S          -0.29256932980619    0.47472712263588    1.05630548575569
O          -0.28916104937969    1.17671315998691   -0.21316368299496
O           0.22145688815473   -0.96983978498432    0.79014599424988
O           0.47373076207696    1.08424542676780    2.08601891653088
O          -1.73312619709974    0.23514222227364    1.49763322697934
H          -2.13082369903428   -0.48074533604357    0.87955387828252
O          -1.64376147302313   -0.01926006808803   -2.15204744334787
H          -1.08995145253682    0.48752123108945   -1.52123055387317
H          -2.26972763864796    0.60496285270176   -2.52432724161498
O          -2.43104132752310   -1.55756630570594   -0.15014293475132
H          -2.24233501635651   -1.09742669373010   -1.00512713160193
H          -1.71345527345438   -2.18481498000133   -0.02080227310264
O           2.32594824922750    1.13408110335726   -0.88722401909471
H           2.35642117366320    0.83689398262750   -1.79899699859636
H           1.39158688215001    1.32428880953876   -0.68750157815045
O           2.64043161022750   -0.43001932898535    1.25817406743190
H           1.22840052570755   -0.93390410236260    0.97111937915983
H           2.78809007613980    0.12389386010063    0.46060829671238
H           2.40988628950610    0.19110684882358    1.96100462202437
