    19
        -40.91905001
S           0.33960744671752    0.90386047802775   -0.65565956033957
O           1.47450713887440    0.05695241177671   -0.82471527600238
O          -0.84076297076612    0.55757225714179   -1.40682661153618
O          -0.05904084762877    0.96467186903943    0.83158634250208
O           0.73444016496254    2.36525049138539   -0.98371144570197
H          -0.10510450318254    2.88097670821655   -0.89427917703076
O           0.01125366293320   -2.64453760040278    1.31148951369166
H          -0.13028693723541   -2.54570829848947    0.34306703295632
H          -0.85840012045137   -2.71744121882292    1.70730237213222
O          -1.77058831567674    2.94559108043077   -0.56482025861616
H          -1.87439820518717    2.08633623112871   -1.00405148278408
H          -1.91479923119346    2.79103035891597    0.37280133200064
O          -0.31041246672175   -2.11309871924853   -1.30257415994641
H          -0.69975649717463   -1.23321182737273   -1.42959062461658
H           0.59269172096019   -2.03216037719230   -1.62198934492794
O           1.58366996619336   -0.59960868392073    1.85861975094064
H           1.05821712398464   -1.43850014574079    1.79822698749377
H           2.15833132926672   -0.60140328409655    1.08235208113712
H           0.61083154131294    0.37342826918477    1.38277253864077
