    19
        -40.92453851
S           0.80635493018796    0.30115924609512   -1.25760893622217
O           1.04774168425192   -1.09675670246881   -0.91924024083941
O          -0.60086392915456    0.52238351867794   -1.57248076193268
O           1.29766569333475    1.21063576574993   -0.24384356185335
O           1.62767430884706    0.60961003870481   -2.57103795385407
H           1.29335201018657   -0.00265773138587   -3.21989049313168
O           1.39185295422481   -0.77500023823979    1.63790326223180
H           1.83032992021511    0.08340264173372    1.61226987693785
H           1.37525963370202   -1.05570761943178    0.68888534442152
O          -1.60224381960940   -1.50595110866199   -0.30757891946745
H          -0.87393025673817   -2.12147210421508   -0.45174230123948
H          -1.37910412272718   -0.73951817290918   -0.89496304014222
O          -1.07903718289720   -0.32847487881384    1.85748235024652
H          -0.05668051633787   -0.54649296773336    1.91547398396240
H          -1.41446542138010   -0.89221557446541    1.04347258121008
O          -0.98263337241065    1.94004677997782    0.76292018984666
H          -1.50528697340218    1.87225067133157   -0.04495301587074
H          -1.12530960077363    0.66211766875933    1.52276430336381
H          -0.05067594911508    1.86264075725468    0.44216732234039
