    19
        -40.91907719
S           0.25687409816035   -1.49740569531596    0.68709117927849
O           1.14017322372811   -2.30274794374852   -0.12341944514234
O           0.90859475476971   -0.24375034657179    1.12215252674264
O          -1.02581525005304   -1.22455131662511    0.08067605692905
O          -0.02119748023500   -2.30553112482834    2.01973494762863
H           0.78778376295351   -2.77772518373770    2.19893366261771
O          -0.83545812987843    2.54248267229311   -0.60689527747985
H          -1.22652082982845    2.01824656259305    0.15150757828602
H          -0.71495504387740    3.43967533677492   -0.29049617093965
O           1.21092146798570    1.09855579821866   -0.94282394187541
H           1.19590498802341    0.57953961519783   -0.02422554593152
H           0.40735730543237    1.75661266107608   -0.88773698513193
O          -1.50420122173680    1.01371540498886    1.39564588632401
H          -1.65538077083228    0.17121416642859    0.92381955783947
H          -0.64398368525395    0.87275924110637    1.81252460792532
O           0.42864379844634   -0.92369614477977   -2.23775588529231
H           0.94810092119890    0.35441016973100   -1.62093872943298
H           0.84976300969417   -1.59609578410073   -1.65687824776641
H          -0.50660491868058   -0.97570808870662   -2.00091577456211
