    19
        -40.91451134
S          -0.41799195723603   -0.65611350709995    1.33537428240520
O           0.20508866296953    0.35323053963117    2.13222890921147
O          -1.63575242088115   -0.09073801121392    0.62751754658672
O           0.40666547060990   -1.38274574511646    0.41892319333386
O          -1.03000854095878   -1.72296867517964    2.32808043609231
H          -1.37126071158758   -1.26057327941027    3.09132571626771
O          -0.45566128571730    1.05348432483565   -2.54219229942417
H           0.02895928299681    1.34060081345629   -1.73486396741083
H          -1.05960507937203    1.76600926801885   -2.75803920373079
O           2.74002995478290    0.06337466890553    0.49187881221033
H           2.07777703828456   -0.63556368639014    0.38151636498842
H           2.73519031372965    0.28302494712119    1.42672005756883
O           0.72829611014570    1.72611403588954   -0.24157026498086
H           1.61035639821455    1.30720399555884   -0.19903979069164
H           0.34466449408710    1.57265030280562    0.62831992433706
O          -1.44907505701823   -1.14959237180296   -1.58796759694510
H          -0.66352444026987   -1.65966623846317   -1.34747231321584
H          -1.68292204628152   -0.54721619681257   -0.34704504827872
H          -1.11122619652648   -0.36051519473497   -2.10369475832567
