    19
        -40.92267746
S          -0.18921183375842    1.04630619426704   -0.05112583350018
O          -1.45150889671200    0.76698410239365   -0.71933844514352
O          -0.08780119843654    0.23545920568683    1.18797243154132
O           0.95990120166264    0.82381324619593   -0.89888961899381
O          -0.17569950556180    2.53263346516185    0.40252997200674
H          -0.99616824696942    2.60691361341429    0.93885997704129
O          -0.69343355525720   -1.54931333929371   -1.68465134584830
H          -1.13411730162043   -0.71078351180636   -1.40771986243073
H          -0.06785790680302   -1.29384835714093   -2.36828733840646
O          -2.41335075793864    1.81577648909652    1.56878880914992
H          -1.99991083273096    1.14928410119729    2.12718177325365
H          -2.52518660415311    1.39430289197352    0.70169191485232
O           2.74867610042984   -1.01268198233991   -0.41555612438054
H           3.39815813142813   -0.66615201388130    0.19934922399834
H           2.20025871685299   -0.24211122871415   -0.70495335488630
O           0.58416639128316   -2.01118871119234    0.46221107141985
H           0.03644731120605   -2.01746281235923   -0.41084268434122
H           1.54209482490434   -1.79612015086527    0.16695577288203
H           0.26454395217509   -1.07181119179482    0.90582364178517
