    19
        -40.92158995
S          -1.14332460807694   -0.65774543800156    0.66371653442044
O          -1.28590645661875   -2.08348918301863    0.54759769876741
O           0.03561020208649   -0.27585438724381    1.45235184379441
O          -1.17411656276143    0.07075956515202   -0.59563069268559
O          -2.40029877697126   -0.13103090123625    1.47233349715287
H          -2.57842889819910   -0.82252908054103    2.10252090909628
O          -0.63684220993878    2.62808590365645   -0.43357933366827
H          -0.74937021166277    3.02515340744347   -1.29962984096170
H          -1.04749771578511    1.73245522972596   -0.47756393769312
O           1.24887969349702   -0.19118961690950   -1.68189872940681
H           0.27434139441163   -0.14330116811678   -1.62244163988963
H           1.45821780892513   -1.07165597811508   -1.28875327527622
O           1.27330176262065   -2.33685664404501   -0.14208910284522
H           0.31859540482164   -2.42390790969412    0.04758413216196
H           1.68777618980814   -2.17878415383309    0.70938182750271
O           1.46940019530078    1.35395990918470    0.25836086459262
H           0.77168873303652    2.05453457368832    0.02600252457795
H           0.93213120662474    0.69925411602765    0.88671428052281
H           1.54584285888049    0.75214174587806   -0.62497756016526
