    19
        -40.91832175
S           0.59221673573517    0.46898896857118   -1.17075114032840
O           1.55805397159868   -0.43421755830902   -0.38567709622954
O           1.32708300184325    1.16545824759883   -2.17451002646142
O          -0.56231914826533   -0.28283311328367   -1.56497426026022
O           0.11126001183227    1.49654892787767   -0.08865525324627
H           0.92697967440841    2.01445671627859    0.12261913027194
O          -1.52744666384035   -1.44986738865537    1.97680185491258
H          -1.94975989635426   -0.75607918980901    1.41728784074307
H          -2.23758989946019   -2.00305078932152    2.30667416324947
O          -2.48145726298422    0.33791552807389    0.24237966929048
H          -1.93328483082393    0.09444442079272   -0.52484570378951
H          -2.18645012748567    1.21776502371226    0.49016398239643
O           2.56275855354858    2.35769674796543   -0.11330914901829
H           2.45410932492167    2.15831094966787   -1.05825064419074
H           3.12096221009889    1.66293507197911    0.24643974132222
O           0.08999547874972   -2.39633916979812    0.12026412135857
H           1.05066869124826   -1.29817655541220   -0.10316804790020
H          -0.44653227457142   -2.12382616326726    0.91005103323183
H          -0.46924755020823   -2.23013067465673   -0.64854020534724
