    19
        -40.92218951
S          -0.76753757564177    0.56583311221598   -0.65575198888307
O          -0.48887698019390   -0.77516614053951   -1.15935575458787
O          -1.55884659772036    0.52004982172843    0.57382638960514
O           0.46709706919791    1.32065587508651   -0.46608775313926
O          -1.63729432995732    1.31124388464342   -1.70967338391955
H          -1.05602125322259    1.30803106047180   -2.49839288897136
O           0.50686245750225    0.81467366885821   -3.15243168670799
H           0.98779743499466    1.22973743566148   -2.42404685307419
H           0.38427296960371   -0.10299208486470   -2.87570748720406
O           0.07059697164586   -2.50212109442030    0.69187655615251
H          -0.59411589511100   -3.19157616352567    0.63032726146194
H          -0.07992938325135   -1.90429226025536   -0.08923960089453
O          -0.30300468742116   -0.63996421665552    2.35452049846512
H          -0.95246690477703   -0.12421680548753    1.68936766356920
H          -0.10179253956314   -1.50202086508098    1.81801837949506
O           1.62311881054385    0.90026181968738    1.81660066498427
H           1.66087635586981    1.74885204724366    2.26313863159179
H           0.55448327275623   -0.06336381874928    2.29346718620116
H           1.28478079474577    1.08637473398037    0.89954415585094
