    19
        -40.91983422
S           0.82114103746419    0.31126458044860    0.24165301091600
O           2.04422381475843   -0.34619502793469    0.87855752049326
O           0.42696648316243   -0.40624123170186   -0.94136453012482
O          -0.23997317929735    0.43621475046797    1.21716843014925
O           1.33122174011540    1.70583805997738   -0.13808164991353
H           0.78107667812672    2.00558839484483   -0.95112585333161
O          -2.07919892304348    1.93614674854083   -0.04879707605003
H          -2.28817572740037    2.70326571706329    0.48822775933564
H          -1.51661980525465    1.35951295837577    0.50193813431150
O          -0.29696011832768    2.05637838403474   -2.03612051920053
H          -1.09743719878297    2.13368480058858   -1.46969717219827
H          -0.25200330629900    1.12727570248349   -2.29371367637855
O          -0.80106904197147   -2.20676999315815    1.38347389263305
H          -0.67551321544889   -1.24912707467586    1.49996832009391
H          -1.61344053491642   -2.31196679869767    0.88359374730709
O           1.52308721595823   -2.70599605154026    0.15270509823340
H           0.70578624350301   -2.78320490361683    0.69312011989353
H           1.22468498753424   -2.41599047284883   -0.71823993231613
H           2.00220286012536   -1.34967854269385    0.65673437614628
