    19
        -40.92453850
S           0.19719665728083    1.49482226452272    0.22083170602719
O           1.04503812209359    0.79164862022466    1.17744738614681
O           0.61133265457347    1.20638301304800   -1.14740657397845
O          -1.21198823474505    1.24425887616900    0.43895907694085
O           0.41821957515899    3.04082317280619    0.45713467744678
H           1.34713139679672    3.18377134831004    0.30004186552552
O          -1.38048953534337   -0.33694053456756   -1.78898400004610
H          -2.07080469375697    0.11110237550249   -1.28644892965246
H          -0.61395981409521    0.28722374340498   -1.73774247396059
O           1.89017659583968   -1.10335861610567   -0.37532121993994
H           1.72495912004018   -0.41476248834976    0.31814831733324
H           1.92054432612360   -0.59635768448421   -1.19514137948170
O          -0.41588173910977   -2.11384073547367   -0.28404846642362
H           0.59276484201052   -1.84707098810131   -0.35083947694676
H          -0.89181294361405   -1.48992307238270   -0.97728387033130
O          -1.00673720115089   -0.92196781103911    1.85704015876692
H          -1.26902528612239   -0.06808443599344    1.43336022726108
H          -0.71691255257518   -1.75606911204427    0.65229241793107
H          -0.16975129935375   -0.71165792541764    2.28796055738067
