    19
        -40.91892058
S           1.14057960026605   -0.03274808058192    0.27786371674757
O           0.66687678144340    0.68851914604789   -0.99824254572136
O           0.68950705968348    0.72225587778676    1.41483664046971
O           0.75147302050332   -1.40952741534223    0.23151347090588
O           2.68390131478418    0.05850314248171    0.18498992313504
H           2.88335391167994    1.02442295188044    0.26596325982805
O           2.35059913872196    2.62606881980849    0.46418696718164
H           1.90056583007842    2.91573719120738   -0.33431279184171
H           1.65978729671707    2.31104566103557    1.06864898445452
O          -1.49037130202063   -0.95698262372073    1.72614884178486
H          -0.77901190608108   -1.50770684976454    1.37069979462226
H          -1.04121121547297   -0.14306603916952    1.98618865235798
O          -2.83971052635729   -0.64779998700107   -0.56688392990020
H          -3.62386246573915   -1.19907141240293   -0.54963273525812
H          -2.43778169555947   -0.70703078725614    0.33000910372743
O          -0.71744469826200   -1.08618803867185   -2.08525334968715
H           0.09538663404007    0.03193639308630   -1.57313658863978
H          -0.30083346779409   -1.78019331941912   -1.55840451960562
H          -1.59180331065633   -0.90817461003663   -1.65518290457426
