    19
        -40.91971865
S           1.07810457492911    0.88997811825368    0.22490380557719
O           1.99752419048642    1.80477154713849    0.81495038142622
O          -0.28311809402329    1.58686327906786    0.10756414915268
O           1.43575274574529    0.27196173410979   -1.01393315118703
O           0.78370173100840   -0.27829646556774    1.23739573094657
H           0.62042266594176    0.20361230548371    2.08800858323260
O          -0.99538155883967   -2.16639205075102    0.07122857558485
H          -0.29415111947470   -1.78737479631742    0.61531955633204
H          -0.59957638148389   -2.35495619559216   -0.79162635923355
O           0.00078635555272   -1.42654793684496   -2.46586749586742
H           0.44978150379378   -1.68005824018893   -3.27349327978968
H           0.61160523409850   -0.82993175158971   -1.98756667291132
O           0.47859011317483    1.59733091676180    2.99181445501724
H           1.19383599693781    1.99098113080333    2.46248164160995
H          -0.31488511436787    2.10201437869566    2.79346028567868
O          -1.88505618152152    0.05186057097234   -1.05807800666447
H          -0.98374159283943    0.99614586808669   -0.39896173411743
H          -1.47910290832344   -0.19910354584853   -1.90141511624991
H          -1.81509215079111   -0.77285885667338   -0.51618535853801
