    19
        -40.91907710
S          -0.49607563550047    0.76421679101557   -1.39665839957912
O          -0.56984605390762   -0.69288703653545   -1.15832714672657
O          -1.78195828592195    1.39771777943411   -1.22149067445285
O           0.57090650027911    1.35720583370313   -0.62366842378023
O          -0.10295694322893    0.91621893821386   -2.92262412735375
H          -0.92673676342951    0.85826438628510   -3.39962816911787
O           1.36607572021811   -1.38213842754625    1.93659909739672
H           1.78006482928374   -1.14693108023098    1.05570309238177
H           1.62908139237956   -2.28274600220142    2.13473255187874
O          -1.03094495975107   -0.94507320424228    1.26680967398917
H          -0.08386588294019   -1.15384466003082    1.64253085306493
H          -0.90931887579558   -0.94439493832583    0.21871376124128
O           2.08586786017890   -0.79975377595079   -0.50032455487220
H           1.81374887772919    0.13850057758346   -0.53703176668448
H           1.39432700883888   -1.24270064871135   -1.00884989571417
O          -1.33205824662921    1.56079585539599    1.35705429640123
H          -1.22335350914305    0.05775805079976    1.46727652801575
H          -0.43322107376886    1.88634623171615    1.21746584880358
H          -1.74973596890244    1.65344531964740    0.47171747510865
