    19
        -40.91893387
S           0.75630242262567   -0.79723874450513   -1.34279418389358
O           0.68752291180646   -1.46543405148713   -0.05804328423664
O          -0.31681494349306   -1.10996428664646   -2.25248166059136
O           0.93479144441572    0.65302597463982   -1.17478056434189
O           2.09146689696344   -1.31098355507029   -2.03007037850800
H           1.91535727084614   -1.18467910774506   -2.95748311193369
O          -2.01534171200038   -0.84664738022837   -0.25096357814248
H          -1.55094247105218   -0.93094163639116   -1.10868374198360
H          -1.53933172676360   -1.44371299397349    0.33401506540816
O          -2.02191927207461    1.59758192005115    0.69600554726320
H          -2.35199112342510    2.15050698750372   -0.01497425408364
H          -2.10901060058178    0.65833678440541    0.37847882616526
O           1.11626450278438   -0.37036835880930    2.25025491278307
H           2.03229155177609   -0.51933724637862    2.49166053872044
H           0.95425793139303   -0.90247262483730    1.42862929132457
O           0.48575020244692    1.73875892881019    0.98686909590541
H           0.74044892331308    0.98843929719158    1.63727039627994
H           0.74053981581873    1.32813340844524    0.03186485330464
H          -0.54964201630796    1.76699666620297    0.95522623011319
