    19
        -40.90863220
S           1.67540068130730   -0.56961749833564    0.49802078948289
O           1.87380331596242    0.77905938652482    0.05447519941866
O           0.69134454819157   -0.61660072113733    1.67234579122277
O           1.31776929730801   -1.52211874956980   -0.49940992183065
O           2.99797802955752   -1.03828216317795    1.19434606115868
H           3.29365023382289   -0.29910910528274    1.72154107401493
O          -1.05205505879405   -0.95677326727510   -1.71661547269168
H          -0.89459424110136   -0.01179663758261   -1.87924449540211
H          -0.17299568686381   -1.34328115799565   -1.57766165337670
O          -1.70206519869066    1.91292515904031    0.88383782436004
H          -1.26362868164356    1.90061377825910    0.02324067096537
H          -1.94968841799791    1.00303325937853    1.06761581390284
O          -0.13361589461289    1.61419143128625   -1.49790737403309
H           0.07561555250043    2.42944617128058   -1.95737466485596
H           0.64782616747406    1.38906102191984   -0.95490728544629
O          -1.64711798021622   -1.01793325832435    0.79466986318620
H          -0.27623380693468   -0.74939691286301    1.35602970605323
H          -1.53614351776942   -1.00296243871765   -0.20814878764198
H          -1.94524934147361   -1.90045829746653    1.02514688153212
