    19
        -40.91628506
S          -0.65250897801660   -0.96681173656694    0.54453620814290
O          -0.31639972432725   -1.06781535824654   -0.94658828501602
O           0.51760741196720   -0.49189090729637    1.25053779995087
O          -1.84273220319039   -0.20410289511896    0.73701084277291
O          -0.93823442330174   -2.42738262235166    0.96476983610977
H          -0.05934589070569   -2.85398267927167    1.12891062866311
O          -2.07864186084721    2.15749816987995   -0.50777484461045
H          -2.06922007272119    1.26469605432964   -0.11211150801018
H          -2.43014690453318    2.73943362217674    0.16894934414339
O           1.54782137697026   -2.90230555575579    1.56679076899607
H           1.50437686927245   -1.92751433866773    1.54338577619400
H           1.72874864026372   -3.15448372404310    2.47541652649050
O           0.32106194073834    2.68370137337561   -1.56922716768766
H           0.16122002474736    2.83057818424571   -2.50328053822043
H          -0.56263922222809    2.53134786959832   -1.16469874756736
O           1.65111358611611    0.46792502958496   -1.06084364859352
H           1.74563531884757    0.45830737643557   -0.09994404645176
H           0.52550809029716   -0.48371309274292   -1.12765701095245
H           1.24677603062504    1.34651522048461   -1.28818193435003
