    19
        -40.91892665
S          -0.02652428106179    0.78783467591025   -1.19915860889503
O           0.52083587089162    2.08223446434762   -0.85424898118461
O           0.97670011065965   -0.28031782048897   -1.03083542043330
O          -1.25509514861789    0.45338185305146   -0.52250489404396
O          -0.35075474382731    0.81810288994810   -2.74660933616324
H           0.38347305296390    1.28463260438723   -3.13519450957972
O          -1.29362889616956   -1.39160371990968    1.51947247281071
H          -1.31784567714826   -2.00391910880090    0.74944692015132
H          -1.67801600109759   -0.57438844235732    1.16466560423405
O           0.90679374499409    1.88174759980711    1.70693789516473
H           1.66419589885796    2.42620769623887    1.93274460038228
H           0.69922923515295    2.07293868424013    0.75644094655004
O          -1.09947990653572   -2.19543305016066   -1.02061514129869
H          -0.18162900479545   -2.22169255168686   -1.30622088674525
H          -1.35604767604408   -1.26137833270430   -1.10056340402424
O           1.08887527363956   -0.63657286849231    1.42141495950517
H           1.06558098488502    0.34710642555842    1.70382312533255
H           0.10733837579944   -1.01779994346923    1.58806105080355
H           1.14599876745434   -0.57108104540788    0.37294360746220
