    19
        -40.92453811
S           0.01592938726249   -0.57355734793091    1.41232194974804
O           0.77800604773270   -1.48902494014728    0.57100490982554
O           0.65375443682845    0.73770444962898    1.46053612322955
O          -1.37855915485275   -0.49907124266010    1.03007588170286
O           0.04668581016588   -1.15505385366827    2.88053504565506
H           0.96988140685834   -1.18512948332831    3.11432557698998
O          -0.86201336829731   -1.54590963383777   -1.44577353928589
H          -0.18459836682779   -1.70312492329968   -0.74135467303570
H          -1.68871977963297   -1.48092571451092   -0.95382004897496
O          -0.16120322476579    0.80804254854728   -2.01110095484592
H          -0.49868590093520   -0.17919327905294   -1.92142576805063
H          -0.71298029136907    1.34683717432750   -1.30385889656400
O          -1.35958827802735    1.85898230748430   -0.05823333242353
H          -0.67748046836658    2.25244489538301    0.49880592233854
H          -1.57372398817079    1.01078715484834    0.40251318499408
O           2.00640130386348    0.59107559083543   -0.74540194633784
H           1.61917562007137    0.77517105186787    0.14815616120909
H           2.20015987057202   -0.35324463388442   -0.71823168719997
H           0.80755892789483    0.78318987941862   -1.61907388899136
