    19
        -40.92079122
S          -0.86085518102924   -0.69608648836970    0.99082816770679
O          -0.71148925260039   -1.40816293075485   -0.27986720231999
O          -0.03158780519621   -1.24517108309767    2.03240918161593
O          -0.71624563265192    0.74121587231422    0.80596114388088
O          -2.36665303903358   -0.90447350558947    1.43122885836417
H          -2.40086167350493   -1.82611432923646    1.66783413381245
O          -1.68547063253835    1.69138374288877   -1.43839528925811
H          -1.50601869353125    1.38782013614713   -0.51723552808298
H          -1.55332099711750    2.64152865816840   -1.44365002073870
O           2.38174990939130   -1.08627964214754    0.96676368909322
H           3.02177925133004   -1.12746381724421    1.67993512732716
H           1.50458968832850   -1.24711582012820    1.37735381454514
O           1.64845823330559    1.05438559473485   -0.38513559272365
H           2.13707005238212    0.30259289655055    0.02509400286408
H           0.87827252095787    1.18183691804004    0.20501896932341
O           0.15086803467661    0.03438714677129   -2.09680714178349
H          -0.21004963962039   -0.69537666598806   -1.42694802461364
H          -0.59938873661141    0.71790466476764   -2.08528279417068
H           0.91915357304892    0.48318865219247   -1.50910549484910
