    19
        -40.91454151
S          -0.04857657330386    0.21939010813796    1.13566853176453
O          -1.22501923781590   -0.46654294361153    1.56261110229017
O           1.04857284253115   -0.79051763143646    0.81678624415222
O          -0.22131437734139    1.12135497021117    0.01639236724820
O           0.56202488150955    1.02865447740740    2.31397483474695
H           0.19582459389735    1.94645234066130    2.26849789616500
O          -1.26334593033913   -2.48681085795410   -0.21416325708936
H          -1.40607600636781   -1.77096375794951    0.43120922503176
H          -0.76514657648638   -3.16234385107429    0.25088192130304
O          -0.47103059468324    3.29338196214215    1.53637218167691
H          -0.60472233239609    2.73272933184565    0.75182464370375
H           0.13303266397986    3.99599537791348    1.28302724484206
O          -0.08233720113163   -1.69596171191195   -2.50014835316053
H          -0.78788915250672   -1.33445849272425   -3.03916939424321
H          -0.51410960767929   -2.04918084490873   -1.69207390573650
O           1.69868042825483   -0.04264763954376   -1.46827212349557
H           1.10201136551046    0.71167718041301   -1.35382402254006
H           1.47063059211890   -0.54434587618654   -0.11072975300157
H           1.17879025225162   -0.70586213143076   -1.98886538365956
