    19
        -40.92045181
S           0.07147237785049    1.59474385811349   -0.09562738512485
O          -0.01667871864068    1.48407309162417    1.34812579308630
O           1.21094097709415    0.85214427392754   -0.62828212872766
O          -1.15996003346062    1.22701407739537   -0.77363184691184
O           0.32641646531930    3.12636503987486   -0.40455423404568
H           0.76223420793416    3.43792305503585    0.38306177053088
O          -1.83017766769126   -0.36029822530489    1.33793404498933
H          -2.31198974362426    0.05845397185782    0.61290012571584
H          -1.14502025692416    0.31800929534989    1.56977508330581
O          -0.42174411423088   -2.10093229511682    0.21006739137252
H           0.51776912973127   -1.86275715011182    0.55275744582903
H          -1.07243096436964   -1.46553896176542    0.75257747108562
O           1.84364231355439   -1.16603493201450    0.84668196347000
H           2.66956078055214   -1.51657159699745    0.50765160251412
H           1.67969813986188   -0.30694301870372    0.37196871930152
O          -0.38155124860800   -0.90213090709632   -2.00634793418378
H          -0.82898071523395   -0.07417273409566   -1.69282816120172
H           0.53298064995044   -0.61790597968615   -2.12260463369975
H          -0.44618157909594   -1.72544086226028   -0.76962508730343
