    19
        -40.91209441
S          -1.40764489716614   -1.31894556687482   -0.22568654044874
O          -0.69401918292613   -2.48988552944057   -0.62022017736996
O          -1.00535209147280   -0.91062908427143    1.18517259963337
O          -1.36672613340901   -0.18201368631011   -1.09618576619817
O          -2.93065367315044   -1.72086460701287   -0.07596682850200
H          -2.96809623186724   -2.62796133740945    0.22197240497311
O          -1.33320958542142    1.53683184820159    1.02236262766325
H          -1.52903765094662    1.47122619676827    0.07765633675032
H          -1.15686096307793    0.13695099894310    1.25190829654265
O           2.61747110475236    0.41969527244059   -0.07006993803855
H           3.38284082227059    0.74201425954351   -0.54964601412587
H           2.09947296145151   -0.10862257097798   -0.71866765130699
O           1.15166733549596   -0.90100198373293   -1.88170042607564
H           0.33671926577016   -0.38667983584535   -1.95363710330803
H           0.85648913967709   -1.76090792185135   -1.55450966995508
O           1.17182196176402    2.29255912507626    1.15695468208763
H           1.69598153587153    1.60560423843260    0.68151440699835
H          -0.41153723723434    1.91514634921147    1.08764162593354
H           1.49067351957492    2.28748382517532    2.06110711476519
