    19
        -40.91451134
S           1.38093269899053    0.67763116787573   -0.13861521640999
O           1.53945129416040   -0.83198969063365   -0.12589391701442
O           1.12439386271142    1.13734078054863   -1.46701776078339
O           0.48695631194941    1.10040591001399    0.89562682402932
O           2.81484310837759    1.20274953710824    0.26892350591870
H           3.38124186610844    1.15538187645514   -0.49906182140812
O          -1.54163350334383    2.25240036308939   -0.55325100991646
H          -0.92297553438290    1.99807774049053    0.14806161029060
H          -1.00573474739262    2.65292275612074   -1.24212406354455
O          -1.25762530803979   -0.31509533588759   -1.37686761918791
H          -1.67458802415024    0.53209679091110   -1.12450627383290
H          -0.37910213299486   -0.07013495309057   -1.68617879857957
O          -1.72127374581163   -2.12592237752220    0.53463958818479
H          -1.62253898452317   -1.46085282709670   -0.18439470177821
H          -1.71165255339242   -2.98386977314256    0.10710899074815
O           0.34759657146264   -1.43047015586498    1.94461543540639
H          -0.49437733805616   -1.78559088464847    1.53537028317269
H           1.09878575622670   -1.19404773744798    0.78770025770336
H           0.15730040210950   -0.51103319725186    2.17586468700695
