    19
        -40.91353858
S          -1.05547750327520    1.52774874729358    0.75194739841873
O          -0.32209317999789    2.14879695217570   -0.45296931257723
O          -0.09783096734628    0.72859401492468    1.49313944452661
O          -1.79838374924905    2.48336150158206    1.47959385510908
O          -2.06180104462408    0.54685176573889    0.07232765101473
H          -1.56459071518130   -0.17704948860621   -0.37606917026019
O           1.67070540993982   -0.55561072140354   -1.86932511687366
H           1.50087174521588   -0.13351998676113   -2.71346427253554
H           0.83578534889426   -0.96082151537152   -1.58211554493133
O          -0.74220047355815   -1.53328828689628   -0.90327853389523
H          -0.48711153229815   -1.82074260260400    0.01438588530564
H          -1.30446480764475   -2.22163307135639   -1.26497311847327
O          -0.21590181761139   -1.90143221265087    1.62946921552599
H          -0.07874286218728   -0.93314829372558    1.72126438723414
H          -0.88448434366263   -2.13785435740043    2.27495983517902
O           2.04389518400035    1.37452577133754   -0.04271645320741
H           1.77976024886962    0.98703076958072    0.80248636489772
H           2.10549378615127    0.63234816223139   -0.68505284983007
H           0.67657127354690    1.94584286185474   -0.34960967473087
