    19
        -40.92136404
S          -1.04244972948382   -0.64390046275850    0.64974891741708
O          -1.10186494827140   -0.05561752726930   -0.66946701865550
O          -1.15055101266774   -2.08160516709188    0.66398166327246
O           0.14183597105702   -0.16491176446621    1.38414082584552
O          -2.28558978988579   -0.07485343765834    1.45706283104927
H          -2.49137072630414   -0.76288967629196    2.08358162935934
O          -0.05109894299755    2.47235868918235    0.92158052986167
H          -0.98505070985899    2.68723123643672    0.94972170079861
H           0.02626710317342    1.56079996733833    1.26121383962231
O           0.64165352682385   -2.24206766680140   -1.26095859156922
H           0.12147124148376   -1.93630975951022   -2.00930585330675
H          -0.00640020795517   -2.37223350136252   -0.53179825014880
O           0.82363637311753    1.55345141290098   -1.42163260708555
H          -0.01356883629501    1.03540657058998   -1.40183642978088
H           0.69744923715645    2.18941825061320   -0.68312318969613
O           2.00155882472719   -0.31166685334258   -0.29404077808821
H           1.64006185253635    0.54876414249484   -0.86684036657776
H           1.40011216273423   -0.25988179809062    0.53642697655245
H           1.63389861091127   -1.14149265494279   -0.76845582886506
