    19
        -40.91907705
S          -0.97557994779415   -0.99616548137754   -0.91592010691869
O          -1.46115072675661   -0.03956264468467    0.10148842812236
O          -1.14356289295209   -0.47982121561974   -2.25409835412603
O           0.36668180340882   -1.43385801074325   -0.60964999711644
O          -1.91836410555866   -2.26048567590836   -0.77993736397669
H          -2.68974923186709   -2.05419366533207   -1.30144493010033
O           0.20464603935955   -1.09034390075301    2.00187463213960
H          -0.69613209012161   -0.77990778475453    1.84220956928658
H           0.46539530076736   -1.45221830786140    1.13204391724138
O           1.51959584646374    1.16018022575630    1.96789316274142
H           1.12458522142338    0.24540147692241    2.06758701403678
H           1.39931604124562    1.60717287291637    2.80771021521658
O           0.10373712285756    1.88330440225492    0.00354742609780
H          -0.65520472916302    1.15287796696889    0.07186111080054
H           0.73350255703074    1.68656875808953    0.80742252487977
O           1.13454974618096    0.79918753025223   -2.03147652886096
H           0.29799695469730    0.43114966372786   -2.39467389337664
H           0.61122573920865    1.59436023481995   -0.85748713422635
H           1.57851136156844    0.02635354532516   -1.65894969185812
