    19
        -40.91904984
S           0.97637857988699    0.64081320803052    0.02106780502828
O           1.56370705459165   -0.57294424454701   -0.48820606083147
O           0.21310682812515    1.41593049936858   -0.90106910936508
O           0.11053955170555    0.26108325115304    1.23790851441403
O           2.09332251275655    1.52213399734857    0.63336527678300
H           2.60669325894372    0.91117894981478    1.21824641044692
O          -0.48093242919898   -1.00698191707698   -2.23631400890942
H          -0.44599414862028   -0.13075714027177   -2.63012991511048
H           0.31172989718103   -1.06218970277124   -1.67908158972074
O           2.86600035450449   -0.63480922279869    1.87332893516462
H           2.15843779224449   -0.83874240358823    2.49109102829381
H           2.60721335864517   -1.02195575425190    1.02177177430965
O          -2.70837285002983   -0.92018040078440   -0.73532843816033
H          -1.94433671034786   -1.00703448102979   -1.34867027026817
H          -2.79867835314220   -1.76524220290937   -0.29262516281200
O          -2.08786611918929    1.25396272627943    0.62155517140951
H          -2.48571320407176    0.47288649300770    0.15763150756544
H          -0.84426209524450    0.68022873069579    1.11381864673362
H          -1.71097326876287    1.80261962431860   -0.07836051486502
