    19
        -40.91790594
S          -0.89866697083649   -0.41455465050580   -0.27332350869795
O          -0.39039883840903   -1.64032265643853   -0.81853064786002
O          -0.35067897632742   -0.05233950637258    1.00874022208258
O          -0.72383872928540    0.71748721246635   -1.26869032284963
O          -2.45152554682281   -0.50513162135813   -0.14633867228146
H          -2.60404239071124   -1.25136456435778    0.47044295092089
O           1.99341734807389   -0.46569817996113   -1.44635477413673
H           1.25003158265736   -1.06450669555099   -1.27565620316259
H           1.79999743964962   -0.03043485315812   -2.27938643452065
O           2.09546674477961    1.14698354020218    0.75197413611970
H           1.40275884637222    0.62180055106789    1.18037386753145
H           2.35015349024781    0.61908992701762   -0.02730945132639
O          -1.75378580106786   -2.44891583809873    1.47579619239753
H          -1.16724313743088   -1.85822639725675    1.96129150865050
H          -1.21320954509169   -2.85609504584457    0.78910082225232
O           0.23888733975846    2.71573641020161   -0.12786138703718
H          -0.36433196876332    1.61059064416160   -0.82947383058236
H          -0.28978766227381    2.89350036641285    0.65429080876163
H           1.07679676548072    2.26240135737123    0.20091474373533
