    19
        -40.92139832
S           1.04131532812752   -0.54134822777859    0.30238314812366
O          -0.04039982162897   -1.49017742292267    0.04406737473353
O           1.13614727426512    0.42634294730596   -0.78647542570596
O           0.87581739093031    0.11455558437450    1.59706550035463
O           2.37686540405755   -1.33526451400054    0.37617766900478
H           2.43303958123469   -1.74561735926912   -0.51107031018719
O          -0.38651723773514    2.52023858215039   -0.58332234781710
H           0.29675295043695    1.81078138885086   -0.71392718432158
H          -0.98535386459421    2.45859287866273   -1.33086960456362
O           1.63582723923265   -1.92138240535137   -2.08324357428801
H           0.80721057564892   -2.20467832594469   -1.67532277333832
H           1.55612950608271   -0.96133648040788   -2.16595952097095
O          -2.34606814362563   -0.47539305826881    0.61387205600449
H          -1.50212809254181   -0.92523317467369    0.32894292291066
H          -2.78963935556913   -1.09525366572284    1.19683904301578
O          -1.15084160410929    1.52114531671243    1.60517989808134
H          -0.24715981845179    0.97750092462332    1.74593491577901
H          -0.92507274962574    2.08724140767177    0.76854401447509
H          -1.78592453212636    0.77928560397484    1.27118420871627
