    19
        -40.91983424
S          -0.42231157427196    0.04640079652768   -0.80532692046328
O          -1.52565487940293   -0.78467743859719   -1.45790496811874
O          -0.85158592184918    0.52398474369461    0.48209113182379
O           0.80758720335732   -0.71373245571986   -0.75424842880720
O          -0.25345320768157    1.22461240993334   -1.77096811321597
H           0.07226986203039    2.01835920539639   -1.20720094559439
O           0.60677729628571    2.84421072115289   -0.03555474944698
H           0.02071524120136    2.48356622258592    0.64134289171500
H           1.47205989447706    2.39658950037129    0.10029033366462
O          -0.01668192734576   -2.48444814867859    1.11989119224976
H           0.40179866870461   -1.98704224283066    0.39601904786875
H           0.41841285055292   -2.20082406789090    1.92691727251329
O           2.62223889041592    1.09259316578375    0.07081049738001
H           3.34990059417725    1.12058722959162   -0.55394051640875
H           2.06135444585285    0.33896630401692   -0.19348195195069
O          -2.52960947499232   -1.67419416327313    0.67942135504785
H          -2.06818738575440   -1.22106809792438   -0.70083368599195
H          -1.73794726632047   -2.19802697280866    0.93422154662595
H          -2.42768328943530   -0.82585671133794    1.12845502112272
