    19
        -40.91493693
S          -0.14009191927434   -1.55549052229895    0.69952152458916
O          -0.17133664781288   -1.21018666212517    2.08725345491934
O          -1.20080642454496   -1.07833840363581   -0.13122279867057
O           1.20440084606791   -1.17158768244154    0.10870509792746
O          -0.15930430626805   -3.13095152672002    0.60788819812822
H           0.33526260583418   -3.46548779060712    1.35293001343286
O          -1.26388211310424    1.69224056793064   -0.15282188253916
H          -1.50218501814504    0.75501337212366   -0.18888377473492
H          -0.78377946506318    1.80098738257369    0.68958849001110
O           0.60531105942962    1.85118283183165   -2.00976304526451
H          -0.15770181791589    1.91933095175803   -1.37962159246581
H           1.36911495891744    2.19170734111986   -1.54073459920199
O           0.12597865122234    1.47678238848135    2.18001033796663
H          -0.23575180294247    1.80637412688377    3.00530058445722
H           0.09375479693011    0.50536173483818    2.23472121313350
O           0.56958319687864   -0.73253568261679   -2.23117808948421
H           1.03940466082384   -1.00657752993658   -0.93950747862485
H          -0.37007915156146   -0.91698885010097   -2.10540698870992
H           0.64210789043770    0.26916398279384   -2.28677863488533
