    19
        -40.92159002
S          -1.19742159901429    0.16240164617420    0.84826841612995
O          -1.16282672832283   -0.34586211108435   -0.51488950329675
O          -1.46994192325085   -0.82201236249346    1.85989280739185
O           0.01238458861612    0.94321582711804    1.13855662660083
O          -2.40033886324552    1.19371065285273    0.87052983563591
H          -2.64513249439497    1.24558169122143    1.78944611091618
O           1.05528456365728   -1.66542533247874    1.79319619883845
H           1.48319922677467   -0.93335038679440    2.24342726273142
H           0.09689186293674   -1.51841101617025    1.91442466620298
O          -0.39600119329211    1.36904375057223   -2.33850230804997
H          -0.47283686156625    0.95887693707795   -3.20233072875751
H          -0.88599004601386    0.79136732821924   -1.70680170821826
O           1.22533744482116   -1.49093748053105   -0.83735089566767
H           1.35460248614337   -1.75865147160270    0.10333012132510
H           0.25919389800331   -1.35737506346622   -0.90350027805105
O           1.58709529691288    0.97208894342978   -0.77357319857375
H           0.99297701581125    1.07288797341250    0.09209466079026
H           1.60781937813631   -0.09501214895542   -0.86832810768695
H           0.95570393727796    1.27786261350378   -1.50788995827257
