    19
        -40.91209431
S           1.48548257059218   -1.17996736285115   -0.42630743545705
O           2.24522767559534   -1.20361741960184    0.78132221515952
O           0.15709766102914   -1.71507195632444   -0.39524517186775
O           1.46709505378831    0.22801352069030   -1.00626947342536
O           2.28647439827851   -2.01568526730576   -1.50511345608744
H           3.21913279162740   -1.91059750675046   -1.32596793065143
O          -1.06197530664745    1.57409823016119    1.84986887426803
H          -0.66103624595478    0.68871893161782    2.00260705034330
H          -1.69934550258977    1.69608461675589    2.55587478214207
O          -0.08006857450617   -0.89351309220311    2.20254414155631
H          -0.36892465462966   -1.38436688535985    1.42192803981465
H           0.88444112553476   -0.91585721731407    2.14841995141268
O          -2.01892550110052    1.87673125210717   -0.61937019942900
H          -1.80880854612010    2.78351842638348   -0.84918708747873
H          -1.67487135650113    1.74271505665775    0.29512599310947
O          -0.72934966781391    0.18178724840943   -2.14559856891603
H          -0.92611587965654   -0.69180993413221   -1.78056451345356
H          -1.28976316803103    0.82866841462519   -1.63136066206163
H           0.57423310710563    0.31015095444430   -1.57270655897619
