    19
        -40.92079089
S           0.68835041342589   -0.70915351575002   -1.11047900532901
O           1.39981610908120   -1.83923772429282   -0.57092228688098
O          -0.76365464261852   -0.89714395093119   -1.08896018271262
O           1.05999357287163    0.56895573866154   -0.51934996343333
O           1.08780788939860   -0.58778004585734   -2.63704742661797
H           0.94857063440563   -1.46841259371265   -2.97112501934619
O          -1.92902337738704    0.77147722611015    0.32002352686329
H          -1.57386106822193   -0.00237369651720   -0.30101092369353
H          -1.62292629164583    1.59945267634223   -0.18105691073061
O           0.36687240533837   -2.05967693453236    1.85114937789916
H           0.98305762840158   -2.56056014871557    2.38905807141171
H           0.72437494957072   -2.07887550169666    0.93681194217036
O          -0.60447363968748    2.54735687236201   -0.96146866002021
H           0.12154297867762    1.87964277948735   -0.96060583216165
H          -0.25286445002206    3.33419498107866   -0.53996839889820
O          -0.02708121867802    0.54528597874497    1.91466721766881
H           0.60108525699141    0.67548402787411    1.17552802653891
H          -1.24952806098050    0.69910194350949    1.13903506659239
H           0.04194091112177   -0.41773810217077    2.11572137066749
