    19
        -40.92246919
S           1.03751118808170   -0.25883199754070   -0.04039357610046
O           1.04503428567185    1.17265655831593   -0.02470624740335
O           0.94710542065256   -0.88688739530212    1.25719365283976
O          -0.09107324893525   -0.78209351161081   -0.92541779117001
O           2.30054212813659   -0.76622934808087   -0.76973632978501
H           2.24831694055606   -1.75092261784843   -0.68073053466865
O          -0.90155799816956    2.70091049656991   -1.07586132208610
H          -0.66157318936779    2.95558995129194   -1.96837171238066
H          -0.10498642526853    2.30129445498786   -0.67782260746648
O          -1.08850064716683    0.70051608187654    2.04862474828768
H          -0.66895318507386    1.56343012699847    2.09047542238599
H          -0.36464936549378    0.05478885484551    1.97852648256734
O           1.48949640844831   -3.14434290195432   -0.10149627425679
H           0.67746972463669   -3.28685736868355   -0.59591737975261
H           1.24153076793956   -2.65741211834939    0.70131674201763
O          -2.14180960106207    0.46661356775224   -0.37033565069565
H          -1.91396699928116    1.36079019597875   -0.71953724764945
H          -1.04742465613531   -0.27674454886480   -0.73123080151528
H          -2.00251157885843    0.53373151970339    0.60542044778969
