    19
        -40.91907703
S           0.46936373129185    1.36642699342218    0.83321408482051
O           0.07031946147330    1.29884742677936    2.21956215500733
O           1.36568969138712    0.24853566308920    0.46942834393004
O          -0.62969801738027    1.46716933503448   -0.09913111395006
O           1.34540307257355    2.67360876707647    0.66091308621603
H           1.82897103315739    2.75989866861038    1.47836984944906
O          -0.51210804649784   -1.91864498043996   -1.89310993246881
H          -0.13826395438737   -1.02059033848443   -2.13053061175751
H          -0.03486273536516   -2.56478118298960   -2.41683124884085
O          -0.04105831948103   -1.79226763301186    0.58653907503335
H           0.65535088827846   -0.99972524717622    0.57972087756799
H          -0.27674535855660   -1.94573518964654   -0.41460173822930
O           0.62970578108772    0.40935126852079   -2.16266667258225
H           0.01635890845007    0.96050351568512   -1.63750294395441
H           1.38834281536134    0.31236707902113   -1.57259083520861
O          -1.86421577240579   -0.34665684899756    1.56832063893365
H          -2.13007985197780    0.19949224730999    0.81718728624960
H          -0.87273998647394   -1.35178866677384    1.03064861687958
H          -1.26973335053903    0.24398911293471    2.08306107289112
