    19
        -40.91971863
S           0.86238573443817   -1.11950744296297   -0.09057910983159
O           1.38254069590528   -2.44470350446570   -0.15034483252123
O           0.29478200519200   -0.89024334975791    1.31552177656916
O           1.71539774807491   -0.03698398066229   -0.47155302151369
O          -0.41696476843409   -1.02088303497608   -1.00179947552454
H          -0.92828539481061   -1.83245049833401   -0.75208877224840
O           1.16240641579501    2.56025829450519   -0.45383636581223
H           1.44745514291066    1.62635308068255   -0.52091958216388
H           1.90999505527129    3.09056198999799   -0.73314235278794
O          -1.45365385464683    1.62750082886840   -0.96029280533680
H          -0.68068261105430    2.17995936430752   -1.14508677468107
H          -1.23079279151659    0.73840262242549   -1.26244797878590
O          -1.14615227801782   -3.22552517216255    0.13685773624715
H          -0.18578077301872   -3.37737928992157    0.09815281118905
H          -1.35806472061200   -3.06159682667049    1.05984438226053
O          -0.49554094847745    1.48085830562017    1.49876311170279
H          -0.02482680693370    0.09732695970396    1.45416893575970
H           0.24965649503356    2.05094870903518    1.25649917777400
H          -1.10387435511245    1.55710292475236    0.72228314970577
