    19
        -40.91469045
S           0.98202307051829    0.82504045285557   -0.50796798221127
O           0.48235007036782    0.55593956683176    0.93712648036437
O           0.48462450342607   -0.23285093257719   -1.35581488717437
O           0.64255489815833    2.15239570489527   -0.88332029906581
O           2.51159347086985    0.66795535502383   -0.37374317908838
H           2.68326856451252   -0.30909795354321   -0.32066906534999
O           2.35848869800605   -1.91646797879341   -0.54038751946752
H           1.49998622378458   -1.64765546712106   -0.91647943732940
H           2.83858622152962   -2.37232270844664   -1.23632280924466
O          -2.19896875617761   -0.00996756581233   -0.73946508774597
H          -1.37709919150977   -0.10457484023974   -1.24295379139411
H          -2.17010414136806   -0.73192300584233   -0.08640773203009
O          -1.35455173809709   -1.56716988059355    1.36603476587680
H          -0.53805358792866   -1.05085913917158    1.33475926169589
H          -1.73632762035347   -1.42716366536101    2.23469818985424
O          -1.55481877852516    1.99184967433494    0.81867627517366
H          -1.17940756047282    2.66115529013257    0.23411110619559
H          -2.02047115705078    1.34050073789771    0.22439911549480
H          -0.35367319947227    1.17521636570258    1.05372662552322
