    19
        -40.92135356
S           0.26202314139285   -0.43989204228981    1.47477769419610
O           1.27831593554690   -1.27902595390347    0.87916715947393
O           0.69911750013974    0.95201917296136    1.59205079708645
O          -1.02702293423204   -0.53981853927870    0.80861604658475
O           0.03040976559620   -0.95660257308716    2.94771785167579
H           0.90906205027262   -0.95266360494617    3.31467554387717
O          -1.79104972398798    1.59363979532705   -0.55613437210726
H          -2.26070768980527    2.19850292328342    0.02104406972858
H          -1.66493574493785    0.76084151555664   -0.04700428531500
O           1.44564372847110   -0.35152017432061   -1.56523766691566
H           0.62947005845407   -0.81494014401544   -1.87086390373141
H           1.61699602587375   -0.76202438625406   -0.68481631323644
O          -0.81789272420359   -1.71559327812971   -1.60288441336359
H          -0.68485432316431   -2.65884943082137   -1.49396964656789
H          -1.02096790097517   -1.36411296369498   -0.71410137104754
O           0.74095300735046    1.86654509825612   -0.72353678665233
H           0.83319807618788    1.61384019945533    0.27986474105809
H           1.09195325855992    0.95701969541865   -1.21761686531465
H          -0.26971150639371    1.89263469042912   -0.84174825942936
