    19
        -40.92315426
S           1.18275939489168    0.57691037773130    1.07253976518489
O           1.93724024366524    0.81001631723550   -0.16180385569295
O          -0.16148509582250    1.14502476278901    0.95523167905790
O           1.15153676324424   -0.80163591645541    1.48118736630101
O           1.93779431649824    1.39819916604620    2.18406271270926
H           2.21826802267709    2.17622138510718    1.71220705533780
O          -1.32582702195769    1.20777042214747   -1.42933433365025
H          -0.92506700732429    1.42696981275426   -0.55955871084480
H          -2.10325929024158    0.67930873773832   -1.21971131497297
O          -2.01496501661605   -0.73587938399384    0.66335151602589
H          -2.34386856300989   -1.09400792718611    1.48903615247234
H          -1.36455771445982   -0.04078839777980    0.90862142547183
O           0.65817979850764   -0.27686762352491   -1.99600565913267
H          -0.17202982461303    0.32984771350940   -1.96379884378359
H           1.31487653321604    0.19123050540316   -1.33171868450982
O          -0.01696823180268   -2.12208408321471   -0.46203490757055
H           0.38275583117935   -1.16350279000250   -1.46626603309190
H           0.55581054101936   -1.86666897358225    0.29651069485957
H          -0.91119368913578   -1.84006410532238   -0.17251600437830
