    19
        -40.91904997
S          -0.93964651303796   -0.57544988176155   -0.38668948882172
O          -1.21044871971896   -0.69186484747386    1.02427108434459
O          -0.60399815930427    0.90067967538921   -0.67399634377433
O           0.08107305298557   -1.42172710351001   -0.91191164395725
O          -2.25447014039232   -0.80613887016234   -1.17237287491205
H          -2.92159514907436   -0.22858228137716   -0.72496259570867
O          -3.33127176671055    0.88701517313475    0.48930206444060
H          -2.73704082761548    0.41937283246934    1.09770292707296
H          -2.91389247225574    1.73100871644496    0.29625261829169
O           1.37232783473998   -1.31431714839252    1.62722088423325
H           1.44360941629181   -2.01879100401179    0.97699677150369
H           0.42996007085589   -1.08252799053917    1.64172211960418
O           2.82289029539268    0.67041115272051    0.54333893280973
H           2.36755099482508   -0.07045603720970    1.00316671133705
H           2.77865236842204    1.42444766106588    1.13301789732376
O           1.60921968360861    0.70492587347666   -1.79714624400567
H           1.50922857110164   -0.24142908493194   -1.96239621205962
H           0.30218890710087    0.94151027398627   -1.20340619394937
H           2.19566252283012    0.77191289069211   -1.00011042382152
