    19
        -40.91907732
S           0.79325754520325   -1.10852311496543   -0.95990145217684
O          -0.62578643037082   -1.26976494372413   -0.74157952527502
O           1.19197818977592    0.30550127104262   -0.79525367622583
O           1.62136448777762   -1.99049799235368   -0.17125657331721
O           1.07032036792875   -1.44340478997621   -2.48209488234374
H           1.99187890841993   -1.68599483396055   -2.52040939417680
O          -1.31700939286861    1.17373042044031   -1.45973436849930
H          -1.35653520393098    0.20782382236320   -1.31458414223359
H          -0.37483675183766    1.32902565713384   -1.60653683214453
O           0.61595179859795    0.88893452658508    1.54640914222508
H          -0.28940802713005    1.38613267666073    1.42492150652592
H           0.96343747820278    0.72087076783795    0.56401221577720
O          -1.58167050080665    2.00827537517909    0.99553037595628
H          -1.62400107014419    1.72056001827061    0.03725179399404
H          -1.62043718114128    2.96639367418418    0.99943834300378
O           0.08203836017685   -1.55336205553855    1.90659251567156
H           0.39274241516635   -0.07448709339647    1.86930423838232
H          -0.72253929457837   -1.67367117169549    1.38564665289490
H           0.78925429155850   -1.90754221409268    1.32224406195768
