    19
        -40.92453850
S           0.02009956654167   -1.52107033725057   -0.09175901082664
O           1.09018409304349   -1.11992497425652    0.81505914335357
O          -1.28211435778097   -1.14154047432654    0.44400122235384
O           0.22620904404721   -1.03958615016195   -1.44152867191997
O           0.04891064000045   -3.09840930991154   -0.17013971593763
H          -0.08913798661924   -3.39206620658267    0.72574086156363
O          -0.16241077367886    0.76549420272618    2.07757788562002
H          -1.04216157112192    0.37068531935035    2.05871821675782
H           0.42579747350197    0.03760948002587    1.75135936270734
O           1.93247884682561    0.84866247107562   -0.92371445046713
H           1.38801683410312    0.12135574394407   -1.31357781807372
H           2.35633114103513    0.43036985132012   -0.16487704713991
O          -0.00561158627483    2.17339339418292   -0.00572433777282
H          -0.07686621642863    1.73150132659834    0.93921520840528
H           0.86310526358854    1.76139767337417   -0.41920783799798
O          -1.76830546666027    0.81880937528406   -1.19362046122908
H          -0.79202125674082    1.74506706272764   -0.54819756652768
H          -1.35319714120121    0.44825638461080   -1.98114736312399
H          -1.77930651617520    0.05999514726127   -0.55817761974764
