    19
        -40.92044696
S          -1.29607356481691    0.68344009478585   -0.63504198585079
O          -1.55018408355535   -0.75481567813883   -0.63842664352677
O          -1.43277248485077    1.24916939170504    0.69321966968707
O          -0.02415619097039    0.99473039094744   -1.26557694915394
O          -2.41266454594743    1.36506070657797   -1.52664397603484
H          -3.12204328268982    1.52205103834033   -0.91077972744915
O           1.61189467245133   -1.02402888095321    1.00195708387857
H           1.84427455333123   -0.03193420507757    0.87200407667879
H           0.68732504641406   -1.01637229389475    1.51676258800020
O          -0.70841713691886   -0.89528455250855    1.94182322053813
H          -0.97746869799446    0.02274055409854    1.68127695457824
H          -1.21921522419310   -1.44641824410075    1.33363200936787
O           1.87448816669495    1.43102397298512    0.43224126273900
H           2.61726253992084    1.79801380366831   -0.05094548342175
H           1.10322798051379    1.42011631930136   -0.19311091158910
O           0.78782736394549   -1.61689850809111   -1.30323019748543
H          -0.17640777888920   -1.45642236610332   -1.12459525635981
H           1.02907231242074   -0.87257037648945   -1.86662055039836
H           1.36403035512413   -1.37160117701858    0.04205481580859
