    19
        -40.91907695
S           0.60668931076962    1.34608119434806   -0.77453094539793
O           1.73034763584174    1.90183597486144   -0.05740039594463
O           0.86034205491303   -0.05165521186134   -1.18462058134314
O          -0.65624711265672    1.45656299545461   -0.08181301236277
O           0.46689066355979    2.15642473336836   -2.12706159520872
H           1.36059005987355    2.36448906416613   -2.38688340097931
O          -1.45374878541496   -2.19127539702114    0.78078392537650
H          -1.60464034093564   -3.09693254191286    0.50422363860504
H          -1.73827982276321   -1.60496072431468    0.02043021538077
O          -1.81608283969597   -0.60427745062348   -1.25513721577775
H          -0.97908058990900   -0.71802724948780   -1.72445350114264
H          -1.70129234982166    0.26207816548036   -0.81774209103739
O           0.92729856635426   -1.35704193585535    0.92487951637384
H           0.99081060187948   -0.88427351540549   -0.01608879180131
H          -0.02721049486640   -1.76942806884900    0.94944243101480
O           0.82126995857004    0.84208542480906    2.16185427008948
H          -0.07921388728589    1.14265747535118    1.98287566055933
H           0.92605545833818   -0.54777112278319    1.57932196598723
H           1.36550189324638    1.35342819029129    1.52191988760097
