    19
        -40.91865344
S           0.29340440057747    0.39897448746381    0.87141310781734
O           0.95428434463797   -0.85171172515828    0.28822949329594
O           0.56361858462010    1.50768594343017   -0.01388838027764
O          -1.08266504198926    0.13960283018191    1.15366660737570
O           1.03987127092437    0.65265518207120    2.20540492259320
H           1.89803798899474    1.09388243123153    1.97638422150908
O          -1.50877373457759   -1.75883804231505   -2.09855524039569
H          -0.81249841775967   -1.88423859430948   -2.74530611540108
H          -1.60928979228939   -0.78859616481623   -1.98401211991087
O           2.93761959611787    2.02245371657812    1.06769240796451
H           2.25519253481673    2.00160843337834    0.37264302015058
H           3.03114226715616    2.93897283598894    1.33964514203925
O          -1.62904262301318    0.87163316164152   -1.51329092183298
H          -2.20710837696106    0.87035644836960   -0.74460482492459
H          -0.78872472699289    1.23039562364973   -1.18960998015745
O          -0.91594350924233   -2.49843903350413    0.36474654888136
H          -1.21824121838021   -2.39249248134333   -0.57388524438193
H           0.27375840397390   -1.64542773747081    0.33596754921835
H          -1.47464196062183   -1.90847731505587    0.88735979643867
