    19
        -40.91907725
S           0.39684124350369   -0.97884340448920    1.29101520035468
O           1.35562465734926   -1.98907594558553    0.90925278778367
O           0.92468728761591    0.38429840287516    1.06917001453809
O          -0.90415377263191   -1.13056419540245    0.68114945665539
O           0.19208447285029   -1.09500429467312    2.85629283911556
H           1.04443112883472   -1.34696641023792    3.20202325935462
O          -1.07256557011655    1.88562681641203   -1.68040082719094
H          -1.41525350857280    1.74158963559543   -0.75059291034486
H          -1.04024711615490    2.83376415689487   -1.82009780613255
O           1.10378151004934    0.63392076665727   -1.39273831685796
H           0.24099842429859    1.17006947312737   -1.61575757638239
H           1.13501326389717    0.60186246485338   -0.33811063359267
O          -1.60146482684503    1.41031856640386    0.82750879977329
H          -0.73636093638016    1.56073642478438    1.23014984615732
H          -1.66332673997472    0.43488071894029    0.80607999254407
O           0.52361971325082   -1.81787901045975   -1.57202927773288
H           1.00403927004052   -2.10378751398646   -0.76308362146751
H          -0.40371252325375   -1.83559705874216   -1.30169096863444
H           0.91596402212592   -0.35934959289046   -1.63814025794453
