    19
        -40.92158993
S           0.46118199150410    1.15009036784106   -0.80228359547261
O           1.22729731705086    0.73253307593663    0.37940603551634
O           1.16823545779826    0.90258212598210   -2.02922835765960
O          -0.89128193635632    0.61553965030898   -0.74970946630072
O           0.28621669127755    2.72023699479454   -0.67843044637913
H           1.08016781731475    3.07442093091662   -1.06718522491948
O           1.73083039775109   -1.58493713518350   -1.26202438277095
H           1.57910950943708   -0.73364837990648   -1.71712852486585
H           2.40214740168450   -1.40276129520323   -0.60033586558321
O          -0.65893236209250   -1.98729275785723   -0.21032826772598
H           0.21979809435682   -2.11697047614632   -0.63970419902941
H          -0.99208692744485   -1.16541421881166   -0.62146154359580
O          -2.09187637506974    0.81383444148067    1.56877182897074
H          -1.74140600512222    0.92921838825776    0.65417677304327
H          -2.99335209066083    0.49790010338013    1.47992648320541
O          -0.08702897957595   -0.74491809729380    1.87096531246769
H          -0.34412467847575   -1.43036399146829    1.08880809188227
H           0.56257554359705   -0.09787266341992    1.34869900958578
H          -0.91747085704541   -0.17217708355664    1.98706634957238
