    19
        -40.92136403
S          -1.06738846764534    0.79275554937630    0.39260444589061
O          -0.88177301553002    1.95204007537452    1.22949583331203
O          -0.43854618353324    0.95173237180164   -0.93057316527625
O          -0.66773924291397   -0.45398510380370    1.00551080144350
O          -2.62299171709476    0.67490947644123    0.09693991174784
H          -2.93684263189401    1.57394381159433    0.13564210000151
O           1.02675554125155   -1.99854598701799   -0.26184577974718
H           0.38682706666186   -1.65288767210131    0.40187333216665
H           0.46795849708318   -2.09601536281155   -1.06439410910006
O           1.55853730789925    1.14587731724005    1.81257607577614
H           1.36347959619780    0.41328948949467    2.40355553606723
H           0.69989977414907    1.60881733789193    1.68276212598563
O          -0.94170375578802   -1.46823963931911   -1.97752134157506
H          -0.83570435284027   -0.52639484103413   -1.74554949883670
H          -1.81775960338825   -1.71758060006520   -1.67817742880234
O           1.95004153184819    0.28145650582393   -0.55663696600804
H           1.70652982467412   -0.78280345161175   -0.46881197445096
H           1.05194017539692    0.66146045911213   -0.87850508375650
H           1.99847966549694    0.64017026346553    0.40105517500037
