    19
        -40.91373485
S           0.11342164538563    1.00672537665953    1.32419093438757
O           0.90219979591401    1.37212372172071    0.17795934647374
O          -1.23421302143123    1.71119384076137    1.29964951440520
O          -0.04254254566590   -0.39082985028179    1.56017085158812
O           0.80139219255670    1.63976454996319    2.58611498500926
H           0.99941227723417    2.55512121812935    2.39459588687055
O          -0.83724103560022    0.25661254699803   -1.69560877424479
H          -0.16557355745442    0.78814666660275   -1.24778857224805
H          -0.40388056609365   -0.59734244683419   -1.91925067144637
O           0.60049609305479   -1.98449325555086   -2.04075859866641
H           1.13152706002428   -2.11024848578531   -2.82856493799353
H           1.22709037959670   -1.80061996479955   -1.30667395479184
O           2.10950309239961   -1.10656448562833    0.00976273493166
H           2.02310845202329   -0.15451679599536   -0.13392462180318
H           1.50080722919250   -1.29012539742955    0.73698930420742
O          -2.55345557811274   -0.07277428962902    0.20819729389784
H          -1.92716081807596    1.02332962292287    0.87302027491175
H          -2.04929804611575    0.00013026325559   -0.65717588425720
H          -2.19559305882523   -0.84563282507927    0.65909487877281
