    19
        -40.92246927
S          -0.56261742628192    0.18365820508373   -0.89163394026581
O          -0.53131524786977   -1.22252428715720   -1.22023263870025
O          -1.02395328645489    0.34551467370472    0.55449857628773
O           0.66408593926068    0.88783973868785   -1.11280347560504
O          -1.69420629603415    0.87172236069907   -1.68581744456336
H          -2.48179183214642    0.29273138817486   -1.52855790929030
O           1.79044299648177   -1.63079471105742    0.09592768705067
H           0.98315930355271   -1.70006116122619   -0.44200111057814
H           2.41314366038856   -1.12046695258446   -0.42784851647886
O           2.14052186653900    1.99213075567852    0.84422564709349
H           1.91247709423925    2.91896545530986    0.93344639791784
H           1.71545642529559    1.67986202480172    0.02291707609210
O          -3.19350175867042   -1.08422951412498   -0.85711987316142
H          -2.36706014942032   -1.56968321146011   -1.01330624379268
H          -3.26519647792285   -0.96629799900807    0.09427004335475
O           0.91531963233976   -0.04089968479416    2.02464857412217
H           1.46202413979698    0.75515280934927    1.82264323683702
H          -0.21169482351114    0.18005243192470    1.27671364480203
H           1.33470625029389   -0.77267233203684    1.51003027888775
