    19
        -40.92453850
S           0.94583840914388    1.07474143703299   -0.52174725336171
O           1.55755087714247   -0.22143596638990   -0.79443281387120
O          -0.30912654035407    1.21844708933480   -1.25069401953808
O           0.79728515743715    1.33116125531134    0.89540405940097
O           1.93318880623091    2.17683744826103   -1.07448977481158
H           2.01193383840235    1.99200156384843   -2.00582000522194
O           0.99711828446275   -1.11147605148543    1.75538522168375
H           1.59781092147677   -1.43583828130367    1.07387613312684
H           1.00709558000684   -0.13165905658288    1.62406646279909
O          -0.57082861833338   -1.50439052848246   -1.53004116626336
H          -1.02495341415049   -0.76751911558010   -1.95546102270385
H           0.33570992095250   -1.14619695858196   -1.35074575078942
O          -1.33460012580245   -1.47748219297163    0.87047448197795
H          -1.10859827567642   -1.62375138567500   -0.13996904066957
H          -0.40076208712327   -1.43637255877872    1.34125465074108
O          -1.91420291684912    0.97393689770169    0.78047434256154
H          -1.70093989272547   -0.49757632065039    0.91138533345079
H          -1.36916966040435    1.41510998193145    1.44237056585995
H          -1.45035029384198    1.17146275302493   -0.07129039442301
