    19
        -40.91437258
S          -0.59540529414025   -0.83097518107329    0.01099448613638
O           0.79757310952332   -0.78498068480325   -0.46882426186888
O          -0.69723234318506   -0.30030643776816    1.36057889466734
O          -1.47128430324451   -0.16560167965948   -0.94314285909224
O          -1.03193928967167   -2.32695073901309    0.05025462901279
H          -0.69938366520277   -2.69602777875200    0.89869888646962
O           1.02644935347947    1.68933072355397    0.92635510068464
H           0.32136813824589    1.06408671281074    1.18782957680061
H           1.81845119545216    1.14980783864728    0.85372036542636
O           0.57225375302583    2.72177497980784   -1.44944796606871
H           0.78798228380885    2.42701686536983   -0.52406010610490
H          -0.26622869735410    3.18517224945119   -1.39439426305524
O          -0.25518866360856   -2.61738923521715    2.55382803187805
H          -0.94649188514224   -2.84524012652552    3.18002258898894
H          -0.31937801709748   -1.65418620985007    2.40555337719225
O           0.31504594916357    0.44568663387121   -2.51779812692202
H          -0.62680989770080    0.24551334831266   -2.14662203390421
H           0.48698094331526    1.42831965905209   -2.22161462556532
H           0.78323732018024   -0.13505090821689   -1.76193171463327
