    19
        -40.91245762
S          -0.90833925080903    0.16493854851784    0.63614222074244
O           0.12355290103245    0.91447245985541    1.34608876064387
O          -1.53773718330505    0.91741350063068   -0.41408395944376
O          -0.32971510840234   -1.10771793169643    0.11931730956201
O          -1.96991470270735   -0.24726200332931    1.70121023106386
H          -2.52799194119714   -0.92610510012457    1.26631192124050
O           0.54497445473051    2.36361083654998   -1.14532608347217
H           0.65461640894030    2.88737515437470   -0.34791691484913
H          -0.29592162223402    1.87340572362764   -1.00968258972289
O           2.50472537001775    0.66177324900214   -1.41106133459468
H           2.31920224720105    0.16742424618891   -2.21212190857239
H           1.80913895375835    1.37808943825886   -1.35871036581410
O          -2.73358297342334   -2.27656723139130    0.19210119814268
H          -2.67151607656713   -3.15433029183102    0.57661844614097
H          -1.84156465098836   -2.04095611301409   -0.11812266392490
O           1.97809366655786   -0.57598937778367    0.71771330262385
H           1.45542148451926    0.16750357732430    1.20570939837071
H           1.09354849756877   -1.05862499489343    0.40478662785879
H           2.33300952538050   -0.10845369025829   -0.14897358598224
