    19
        -40.91904993
S          -0.91746446246885   -0.09810735390866    0.71559050866793
O          -0.78482911601683    0.89366783172310   -0.45615184917393
O          -0.97210635480141   -1.42526578088886    0.15573947187875
O           0.10327897890829    0.14502339031240    1.68147286742270
O          -2.29783032400741    0.24749753158149    1.32712141426245
H          -2.95345971528608    0.00761551401183    0.62610748239567
O           2.78554731414907    0.34323677902670   -0.92451378165525
H           2.74862976456379    0.17456298626781   -1.86707223978053
H           2.48103007541596   -0.48080761021455   -0.48204386893339
O           1.72374024134739   -1.77783878016550    0.33845771944750
H           1.77907482445366   -1.53143232355407    1.26601906276192
H           0.77330830454501   -1.84970159959738    0.15564373056920
O          -3.30674428416365   -0.60641267238904   -0.91771595616823
H          -3.01795446961659    0.02305873088584   -1.58419176209274
H          -2.58359614020100   -1.24508652672074   -0.81111747468783
O           1.25014718705697    2.17242242278255    0.19420274593662
H           0.02502812068175    1.53380109854262   -0.26357737490290
H           1.22894643903177    1.85567430424198    1.10647549641846
H           1.93525360640156    1.61809204807356   -0.26044620236457
