    19
        -40.91907709
S           0.09246242112891   -1.08002938012484    1.26754879121568
O           0.63521545878629   -2.34782178053307    0.83896342940446
O           1.04241819801404    0.02748192018029    1.02912257765902
O          -1.20608825375665   -0.76993459451983    0.71512045599362
O          -0.07702716011994   -1.15020472539876    2.83984109854596
H           0.65673382669931   -1.67633881494968    3.14696917727143
O          -0.43604346660837    2.16892917584996   -1.62203263454543
H          -0.08999228158997    3.05252207909675   -1.75993544257189
H          -0.76871797749407    2.13213794904431   -0.67816376729246
O          -0.99176403536441    1.85346563793709    0.90498658696071
H          -0.11115331027932    1.69087624182721    1.26755189670861
H          -1.38417596001873    0.95840744073994    0.88193148748316
O           1.19590722387810    0.24856652084005   -1.43762374903291
H           0.55784666125458    1.04965738879343   -1.61930832377864
H           1.25721706533634    0.18769325829867   -0.38599742396738
O          -0.18832236376964   -1.85764359251463   -1.60216092613852
H           0.19845460775334   -2.30457482550061   -0.81624333616666
H          -1.05530525352117   -1.56567241294547   -1.29171336005269
H           0.67233460965745   -0.61751747614290   -1.67885653770285
