    19
        -40.91832159
S          -0.26758197449338   -0.32706218865970    1.32677260545490
O          -1.27400053734123    0.70675555738887    0.79445828415402
O          -0.38471350270041   -0.39513781739687    2.74602653255670
O          -0.37420514031840   -1.54073788790321    0.57226534681591
O           1.11803405125208    0.30905316059294    0.96143427295261
H           1.16460768823093    1.11557577140520    1.53209187354476
O           1.64631721713167   -1.45052147221732   -1.22882517508301
H           0.94532029815446   -1.66714350640460   -0.58846724053581
H           2.26440683683379   -0.89809239898911   -0.74373158833319
O           0.19926078942174    0.06200900721683   -2.88230522691615
H           0.22422377185376   -0.29955994418867   -3.76985588240213
H           0.82025976076156   -0.48065553953176   -2.34138524170160
O           0.51091697875663    2.13319169047451    2.70935257734147
H          -0.23535924480251    2.63110948323122    2.36442955400600
H           0.13692709141353    1.35461996955283    3.15480873468172
O          -1.93577471948796   -0.33170086731296   -1.38365890277885
H          -1.72476257530696   -1.22051035692030   -1.07228739955644
H          -1.62170935161621    0.38612998875037   -0.13303769162569
H          -1.21216744774919   -0.08732264907610   -2.01808542257284
