    19
        -40.91191260
S          -1.43632506546879   -0.32692524795039    0.71597621038759
O          -1.25000585063765    0.81264340219880   -0.18330381183632
O          -1.26370862857844   -1.57866237541972   -0.05007861046334
O          -0.65668637487289   -0.26613886405853    1.91025121065671
O          -2.95190842254320   -0.30240210330532    1.15796374739907
H          -3.46825315845798   -0.33266099460682    0.35681557456556
O           1.84831412165565   -0.01065810714660    0.92788569734063
H           1.05567459628292   -0.32064768352995    1.39891068049774
H           1.72687468769583    0.96029005346487    0.89623934266122
O           0.63863692451928    2.39453566286362    0.95299505227188
H           0.37820237729024    2.46285503056778    1.87405433235733
H          -0.10409146338309    1.95525418065411    0.50192420797699
O           2.07227603422340   -0.85767458552674   -1.49585429394825
H           2.37022988768035   -1.76823712845979   -1.44538000743800
H           2.06440350483361   -0.50873373499904   -0.55004937473969
O          -0.34669396923994   -0.62410642474901   -2.07789006363237
H          -0.60261052526622    0.25487580681949   -1.69402885963667
H           0.70140653497095   -0.71816787581007   -1.93879847216474
H          -0.77573522068069   -1.22543902102939   -1.25763256224973
