    19
        -40.92453842
S          -0.56780591390508    0.57367624789138    1.29266519675480
O           0.83616914948225    0.26691774598988    1.54106204161636
O          -0.69979788691725    1.59639363452728    0.26072406119496
O          -1.35212058278711   -0.60888179715648    1.00534875818681
O          -1.15242429753996    1.18483981954432    2.62666733582391
H          -0.61317327834288    1.95008091365110    2.80426749802937
O           1.58591811908491    1.25774352828196   -0.91258033047550
H           0.71994655253105    1.56235649670707   -0.53880804679510
H           2.09906539319574    1.02128105629518   -0.13099227715550
O           0.71309734083328   -0.91738051711135   -1.83668744913570
H           1.17344296846926   -0.01325204709386   -1.58413297296879
H           0.83899839741557   -1.51471536020069   -0.98602233152050
O           0.88203859851017   -2.06876260175982    0.39911196654312
H           1.01331389391834   -1.25120026328826    0.94131677827744
H          -0.00826042825690   -2.35518803885799    0.63405836629441
O          -1.69636127042887   -0.23786680855512   -1.54227236450776
H          -0.30840566852588   -0.69062511736910   -1.85815719153692
H          -1.75889778278652   -0.48202287743447   -0.58629867499915
H          -1.70474331396510    0.72660599596050   -1.52927037361515
