    19
        -40.92021792
S           0.73603481977494   -0.03520585314411   -0.75906614312140
O           1.17553441647518   -0.09750881458349    0.69214797550751
O          -0.31739872281232   -1.00973879283874   -0.98267368307642
O           0.41110023377262    1.30290686045767   -1.13968396194443
O           1.99187102061980   -0.48950250286947   -1.53508501216747
H           2.02115913488980   -1.47447633016102   -1.44404941114884
O          -0.44489592824312    3.15875339981095    0.60431187675379
H           0.27190487000241    3.78867519571139    0.69893683320468
H          -0.21866856952184    2.59958112875641   -0.16311355961122
O          -2.33503065594134   -0.46212558135711    0.70569735528870
H          -2.68370762809848   -1.30263226424955    1.00885109170986
H          -1.70782281815311   -0.66256436612105   -0.01497888566618
O           1.37600871644749   -3.00688315096644   -1.29789118317059
H           1.25831701537847   -3.47676024834378   -2.12714156581935
H           0.53945357440270   -2.53847767557117   -1.11428803318840
O          -0.56484113988072    0.96625540617258    2.07868608432395
H          -0.59857257520278    1.87606711928699    1.69251028340163
H          -1.35980337899164    0.50135927675863    1.72854923737383
H           0.44935762508295    0.36227721324953    1.36828071134934
