    19
        -40.91597556
S          -0.39058117902685   -1.65102013907780   -0.70370671534545
O           0.96067445272036   -1.06264685476560   -0.78170310814519
O          -0.59230133201333   -2.29384081814941    0.58290791752073
O          -1.41514220553013   -0.71100569422718   -1.06557341327724
O          -0.40195210456670   -2.79875551498391   -1.78993758306368
H           0.22240918023773   -3.42472701950864   -1.43647384239597
O           0.80904091445440    2.64618087045988    0.00583248282937
H           0.09341844244411    2.35849290913173   -0.62884328423711
H           1.52277590418114    2.98325376051337   -0.53945381855898
O          -0.97444759487914    1.78734812920607   -1.68823176235273
H          -1.85644136270494    2.15966136405611   -1.62897167927064
H          -1.09002413808102    0.82070157702550   -1.52581974653875
O          -0.51250224307502   -0.47873412496382    2.41128487408180
H          -0.35968087914622   -0.92372874697907    3.24762600277791
H          -0.67631012973531   -1.19742862471338    1.74193121092673
O           1.44621583549072    0.44997745218753    1.09233289804956
H           1.20801808303969    1.38426474029688    0.71118543101272
H           0.69271104925102    0.17700073462243    1.73274592983070
H           1.31411929694318   -0.22499401000135    0.26286820617020
