    19
        -40.92136393
S          -0.54560640415743    0.80926823148312   -0.98556810096822
O          -0.12852029165226   -0.57480320244114   -1.27210584290190
O          -1.97082626145536    0.98809910401227   -1.11185331703223
O           0.00149693125539    1.26047572322327    0.27407792971302
O           0.13678125669290    1.68765420944572   -2.11831900722951
H          -0.51314553114009    1.71574069414124   -2.81477419018723
O           2.49924976595266   -0.39306719312751   -0.75208814987630
H           1.59628982235752   -0.52432541813933   -1.09798557708014
H           2.78229745537330    0.46640846259003   -1.06879983734031
O          -2.32321741686490   -0.06645022169579    1.27680929426025
H          -2.38252909140122    0.31518443363532    0.37154166635204
H          -2.00493921762100    0.65045272286333    1.83255938358439
O          -0.46482591599814   -1.77464383681449    0.90509130819543
H          -1.28121780020707   -1.22558500636257    1.18996038968075
H          -0.34199490642019   -1.47906333327492   -0.07100544943075
O           1.44299143889501   -0.40450553787183    1.69495899341902
H           0.98803749264429    0.40929933613576    1.37887755442667
H           0.39921021079028   -1.29817232496905    1.37735990909368
H           2.11046847293788   -0.56196684283010    0.99126303332801
