    19
        -40.91907736
S          -0.89996450672017   -1.40297180562039   -0.05661454603985
O           0.26481602219908   -1.18051766555640    0.82642213774357
O          -2.14578378247778   -1.25715174785267    0.65917068058127
O          -0.80024560237668   -0.59525591932945   -1.25037759466208
O          -0.79452092146699   -2.91615300593958   -0.50941387755271
H          -1.20738299481719   -3.41543958980135    0.19043191626069
O           0.19808199836559    1.22787341963422    1.41896396550435
H           0.27316651200834    0.18329545710270    1.28742305163558
H           0.89738963524072    1.62817422821220    0.76154981415575
O           1.89434799356082    1.96073591322480   -0.30488797517088
H           2.78632672479632    2.15999703137663   -0.01483300429175
H           1.93872031320389    1.09305486425446   -0.80287515513604
O           1.83464888928913   -0.45085705041465   -1.29255643884298
H           1.81190359119460   -0.97989958397126   -0.48446082329525
H           0.90697774882186   -0.48531649911076   -1.59890923741075
O          -2.04882289255877    1.33434050892472    0.27030644640387
H          -2.35114319971750    0.43757371499836    0.53777634540466
H          -0.74221982420434    1.43292149819325    1.02387986270564
H          -1.81629570438404    1.22559623169056   -0.66099557799372
