    19
        -40.91339512
S           0.97976192229626   -1.24434863062121    0.77362973072914
O           1.32670084065023   -0.42389089797724   -0.46629140297191
O           1.62355530686689   -0.68744844392044    1.91671227163066
O          -0.43635650406343   -1.45422909509195    0.82597424085432
O           1.63705553365252   -2.65070709655514    0.48442842045206
H           2.54935144921024   -2.62068154148442    0.76672140894276
O          -0.53732870485231    1.01910485605101    2.03398173903697
H           0.30373181003687    0.77276491489255    2.43657503451785
H          -0.92284927847329    0.18238642728179    1.74626249102371
O          -1.76730985478242    1.30471450208365   -1.77241419361336
H          -1.04702954320376    1.79429016425454   -1.30456714613512
H          -2.55813146209303    1.42260589178497   -1.24337532679482
O           0.20071793586342    2.25356974275319   -0.26884884722691
H          -0.10870331628295    2.00213456937793    0.62442830963327
H           0.95323669755477    1.68392751710862   -0.45505718043756
O          -0.61647845646943   -1.03380675734656   -1.84929216806855
H           0.55875348070768   -0.66177623860296   -1.18937329153165
H          -1.02964093461336   -1.49007051753391   -1.10210215575411
H          -1.10903692204462   -0.16853936641896   -1.95739195425083
