    19
        -40.91245775
S          -0.17439719379675   -0.07243616301344    1.10411515567121
O           1.23354085062659   -0.24107429003429    1.33815564264199
O          -0.43779191462794    1.06323329405425    0.17607934905277
O          -0.82360173426160   -1.27675175658119    0.59458325752694
O          -0.89348546268807    0.28778435798586    2.43984610181952
H          -0.60898529964698    1.20168868843746    2.65257964486536
O           1.74325606669062   -1.94655785050066   -0.60935484623562
H           1.23658592832885   -2.69805670409507   -0.29169971011915
H           1.71075226610496   -1.29374335334345    0.12464198329210
O           0.63590412468379   -0.91057860653437   -2.73160058072159
H           1.18176171341786   -0.15981077040395   -2.97411678273595
H           1.10983594003881   -1.36727883563904   -1.97858964661367
O          -0.16563940552179    2.81376508733148    2.17834732482515
H          -0.10505420490475    2.42973931503525    1.28597251517868
H          -0.86511221550376    3.47108225727431    2.15142440199376
O          -1.50273276807654   -0.29343767506486   -1.55533700197388
H          -1.13764920049834    0.50469330821807   -0.97271112289654
H          -0.69269768567869   -0.55475117197653   -2.16553032445577
H          -1.44448979455528   -0.95750916115737   -0.76680535128421
