    19
        -40.91940424
S          -0.69657098590253   -0.71423910594493    0.37891640608504
O           0.74494647549157   -0.97622672890563    0.45846537966878
O          -1.05024509907591    0.52996831674827    1.02940026031870
O          -1.15031308758423   -0.73849162810390   -1.01557833825855
O          -1.42792892709706   -1.89080719529585    1.08600118744401
H          -0.94043094862586   -1.99173143114347    1.93061153253036
O           2.05642342452078    0.32498004315909   -1.37669921415310
H           2.50798315134236   -0.34278150758987   -1.89714036846147
H           1.64543833851152   -0.15375253173260   -0.61012432017587
O           0.47753181441894   -1.92776934249469    2.90244168374783
H           0.97395915335950   -2.74212848525662    3.01329281846527
H           0.85128958090063   -1.47481526600014    2.12172168657423
O          -0.86038118273261    2.70305229262025   -0.34567851879711
H          -1.74155529116443    3.08270075652839   -0.36029208665622
H          -0.90059436767477    1.94289103999970    0.29819465559128
O          -0.17610857441774    1.17260716571356   -2.22567446102742
H          -0.43969508090950    1.92750057472711   -1.56269454864692
H           0.80428253730170    0.94719591525798   -2.01292355135487
H          -0.67803094084662    0.32184711791532   -1.81224020298367
