    19
        -40.92453852
S          -1.49888666407217    0.11189546726746    0.25109330704530
O          -0.98359427525407   -0.94011546184675    1.12058580440339
O          -0.91026261496704    1.40141031983680    0.59376803373250
O          -1.35430472601635   -0.20865858138145   -1.15343142063193
O          -3.05015417522625    0.22091297056815    0.52754732129948
H          -3.12082992899611    0.43791127801723    1.45266318023101
O           0.65609549245606    1.62170253126154   -1.47012427323161
H           0.08534263931854    1.20053763859807   -2.12332600577780
H           0.06533709817143    1.73460139156776   -0.68404904764511
O           2.10833271242425   -0.19046743864050   -0.49024539173660
H           1.90065860021171   -0.02968809481603    0.52167231797108
H           1.62813302882488    0.60135772358227   -0.97875559328303
O           1.22933383454875    0.20254763890500    1.83796327298101
H           0.90895221180215    1.11217242367017    1.84509534745155
H           0.40367747381611   -0.33389435997721    1.72512058572778
O           0.46733503975726   -2.04809920134808   -0.94788583401357
H          -0.28665039537973   -1.46160366612577   -1.20319491155032
H           1.54856383740408   -1.03956664498082   -0.73774308192511
H           0.20292078115869   -2.39295595417750   -0.08675361100757
