    19
        -40.92217267
S           1.35527077453817   -0.25683980806160   -0.06090659493381
O           0.54154252687660   -0.16383082737970   -1.27969050664630
O           2.43560198409977    0.68684302537767   -0.02989478180223
O           0.51364836683041   -0.29214256175917    1.12231304764607
O           2.01642165647113   -1.71223341910119   -0.12135363464888
H           2.89226632202300   -1.56436788676222   -0.46561905865927
O          -1.51589357925292    1.45311541656784    0.97467545221302
H          -0.88404072212015    0.89752192131494    1.46479230679509
H          -0.93235741458223    2.08974539892613    0.50579554108835
O          -1.87306093958428   -0.30616987785780   -0.76098334722567
H          -1.89050903875004    0.48079791979828   -0.03642365049885
H          -0.88205554152102   -0.23122988479770   -1.11710173729185
O           0.50795180865140    2.52766582713198   -0.39993153537821
H           0.42620730073229    2.46971715966933   -1.35485187730812
H           1.30258802381320    2.01159749490786   -0.17616092466570
O          -1.11803306014462   -2.28547304033265    0.67779353862619
H          -1.82452324641137   -1.16666786311581   -0.22509443613572
H          -0.61970333810867   -2.98640162384799    0.25307972232939
H          -0.45132190353456   -1.65164738057427    1.02956245653794
