    19
        -40.91971868
S          -0.75890598108450   -1.19288965726759   -0.07242744713890
O          -0.10927046354501   -0.95766174433422    1.29674585731374
O          -1.15752966049582   -2.55882608244030   -0.14778676843609
O          -1.73500306295376   -0.18458425173753   -0.34649424293251
O           0.43284909010028   -0.94240399180171   -1.06935218651887
H           1.03475378555507   -1.70939817496339   -0.89031494426316
O           1.21807894986808    1.79011315545942   -0.99868349848995
H           0.38570599564034    2.27253944809717   -1.10416351020204
H           1.05565534613633    0.89415631335377   -1.31857663592725
O           1.44686735649003   -3.10471732722240   -0.07745482193010
H           0.50444264239571   -3.34581635382151   -0.05254343681865
H           1.71214014112788   -2.95289256869988    0.83374298052335
O          -1.42666486838862    2.45177784039063   -0.26272915259065
H          -1.62767957621678    1.49759183472259   -0.34677091605248
H          -2.23991405620821    2.91656345181733   -0.46447054814792
O           0.47038579795818    1.47047159602900    1.51634418743785
H           0.12768577210791    0.05085128961567    1.45092782444970
H           1.00715899594798    1.63030572575055    0.70083386661626
H          -0.34075621441762    1.97481949709262    1.35317338311328
