    19
        -40.91335393
S          -1.80320234767452    0.35795495268105   -0.47834373188426
O          -1.69021655469199    0.87570085798740    0.85178418914682
O          -1.06134811270529    1.28174167943730   -1.46235692324326
O          -1.43280357747051   -1.00156507236377   -0.67957529113175
O          -3.28274752225942    0.55166168743036   -0.95320240331173
H          -3.56140365228889    1.39735954053302   -0.60908218215669
O           1.32744741126267   -1.72340885732569    1.79975671974874
H           0.52515799535004   -2.09344250807468    2.17132267693693
H           1.26476522602536   -0.75092357950133    1.93007723093144
O           0.88995005483499    0.92826694649799    1.76496579143623
H           1.30169016045900    1.19313302816488    0.93458808119568
H          -0.06799250225460    0.97669152601468    1.61487750815125
O           1.21879886828473   -1.62178899586725   -0.86044499543858
H           1.40538172637628   -1.80241447223149    0.09136751469945
H           0.25343723603738   -1.68061194083192   -0.93766315487101
O           1.39774220033065    0.90721437685412   -1.05587008690711
H          -0.04917559212604    1.18070258938943   -1.32190031969903
H           1.41912780210642   -0.11711817147839   -0.99170720662192
H           1.94539116040250    1.14084640268668   -1.80859341697416
