    19
        -40.91907678
S          -1.58124036282930    0.18096635654195   -0.49916160632946
O          -1.65125188808000    0.57771475267511   -1.88594898650531
O          -0.88863020905960   -1.11515151997304   -0.33782083459663
O          -1.01401927813776    1.17862918503882    0.37840380954926
O          -3.06445122984196   -0.07797190382426   -0.01022806599609
H          -3.51508304206458   -0.44870858713499   -0.76457178313908
O           2.31297788038989   -0.41851042262397    1.41296300736189
H           1.41430635377986   -0.39501315835470    1.85423565707770
H           2.79866513712042   -1.14315105269013    1.81107679768542
O           1.47526837666809   -0.68366297581236   -0.95633966079261
H           0.48615643047798   -0.98571642823147   -0.74642191959140
H           1.92314312736808   -0.57826151040541   -0.02368830376814
O          -0.16140813074677   -0.49849092118798    2.22874303764078
H          -0.51746217241174   -1.20111210481704    1.66960778904263
H          -0.50605480826739    0.31164119087317    1.80371588064709
O           0.74744611145865    1.61894031867828   -1.69558487679710
H           1.33740215298947    0.27494548523578   -1.33686544168160
H          -0.13217984496188    1.34898083197533   -2.04282871972192
H           0.53641539614740    2.05393245403495   -0.85928580008550
