    19
        -40.91117802
S           1.69711069648101   -0.51849133660565    0.26173344693334
O           1.26315607443040    0.95191154852757    0.28207695642041
O           0.61444761583775   -1.33351717182254    0.75016704759818
O           2.26473673434337   -0.85640113816241   -0.99183464106773
O           2.82183053261678   -0.54740238767347    1.35893254480695
H           2.41409748864313   -0.58420294059201    2.22304422030426
O          -2.92696697469565    0.24485947301400    0.11585793726675
H          -2.34760471713675    0.39486190710383    0.89197890964136
H          -3.62568874599065   -0.34363180414366    0.40532387982665
O          -0.98210170506115   -0.72637124640063   -1.47386797783180
H          -1.77680200553286   -0.35515430418346   -1.02924503707520
H          -0.49947610350487   -1.21164741400005   -0.79296456630771
O          -0.98715834152545    0.46088108260383    1.99509896820041
H          -0.49124394682227    1.23577289344425    1.71503986507058
H          -0.49271218793369   -0.30339123869977    1.65114640090822
O           0.68158000150484    1.15252758556836   -2.10521298857579
H          -0.06790835051940    0.48827997027657   -2.03594840909187
H           1.02082492480089    1.18959115096487   -0.73664302707328
H           1.41987901008510    0.66152537079741   -2.48468352995566
