    19
        -40.91451102
S           1.38287208193763    0.32616043471929   -0.60990436667308
O           1.85134081983706    0.97460250480725    0.57421691152099
O           1.25634261111563   -1.16815580871199   -0.37730098217652
O           0.19931154405312    0.84287579971859   -1.22650154083904
O           2.53337530148769    0.43616475209502   -1.68803417694258
H           3.37264597738706    0.34765433006596   -1.24015255328613
O          -2.10561710902573   -1.68592508887221    0.71104169678951
H          -1.57464645573861   -0.99041943167943    1.16203054912866
H          -2.04061569177057   -2.46892379653987    1.26026683416389
O          -0.70508887258277    2.60777699088900    0.67264537054420
H           0.14613548504166    2.93969287158804    0.96795968802841
H          -0.53118449179798    2.13414918022096   -0.15484079360091
O          -0.51127881817931    0.15542642012892    1.81274946945782
H          -0.84775203675662    1.04590357277440    1.59116143498410
H           0.43780950452584    0.20956838993191    1.65815067801795
O          -0.84384938245695   -1.67220369969617   -1.56009535553382
H           0.38628375837583   -1.50578867895397   -0.91581908156146
H          -1.44610679592270   -1.76415846522461   -0.76537329288479
H          -0.95997742951798   -0.76440027766732   -1.87220047903953
