    19
        -40.92267745
S          -0.41662704533750    0.28732162248818   -0.93664927923155
O          -1.47448704908713   -0.69393351156286   -0.74675107876271
O          -0.30489683103535    1.14386442129849    0.27045859816090
O           0.85959071705626   -0.31223765050520   -1.25361797867449
O          -0.80984653084361    1.23483100963382   -2.10403183745957
H          -1.69201546229996    1.56980495012704   -1.82836764164201
O           2.93878992215122   -0.14316918523875    0.31313725471283
H           2.27313826281494   -0.24891629499299   -0.41075913483834
H           3.39904150254570    0.68009738879569    0.13866704999785
O          -2.96206103332087    1.54998905815749   -0.63786952443337
H          -2.85124058136088    0.58739812574648   -0.58135258960347
H          -2.48842485319386    1.90819964522393    0.11989269403490
O          -0.07540217562473   -2.23493301798597    0.84711320978036
H           0.56330179658034   -2.62858283314639    0.24621687016017
H          -0.73183905393911   -1.77914684894183    0.26803611600935
O           0.96250648686471   -0.17328631758368    1.90882925633201
H           1.87643763771996   -0.15641577426201    1.44464517947965
H           0.37588671374520    0.49638271259859    1.28513818718342
H           0.55814759656428   -1.08726749985098    1.65726465879483
