    19
        -40.91451146
S          -0.03420289671300   -1.44021675410018    0.55902245564205
O          -0.24668559736168   -1.01043025754573    1.90509597517642
O          -1.27137328445424   -1.17584523048466   -0.27960516698877
O           1.13991279688428   -0.97081847186560   -0.11104924115941
O           0.06569816704481   -3.01748573349965    0.58254757454440
H          -0.55792857855504   -3.34797850618836    1.22653854335751
O          -0.48593966847784    1.58530236807828    0.90680887543034
H          -0.76493348161934    0.77370537119570    1.34384428206918
H           0.45717864762645    1.68103101350426    1.14456809697201
O           2.04930608548453    0.94995739554240    1.62809268994982
H           1.82641987592303    0.50593463357318    2.44986606723376
H           1.97839121676703    0.27528506771965    0.93590562982739
O          -0.78600365847333    2.06063360010688   -1.70700915922559
H          -1.67967858182211    2.38659911657296   -1.82569873630877
H          -0.65893465885564    1.95729066691364   -0.73637376613472
O          -0.27266127041642   -0.39320538696965   -2.39033140790101
H           0.63475623144137   -0.52291163213284   -2.08231059351264
H          -0.93823243073423   -0.88290931141025   -1.26116286168040
H          -0.45508889369348    0.58606207098898   -2.28874926729309
