    19
        -40.92136403
S           0.43361895603162    1.31378621670301   -0.09577063569884
O           1.41647428010812    1.85359472562716    0.81059212126267
O           0.99021617569411    0.25643406325230   -0.95831340063602
O          -0.78414322700496    0.86812701623786    0.54307022955547
O           0.02365005258170    2.48225700087148   -1.08959513163605
H           0.80074163452058    3.03197461371618   -1.13667945500941
O          -1.22405826904344   -0.47687128618550   -2.28757572646963
H          -0.34854544077201   -0.18975165023049   -1.96615600604346
H          -1.72171527302161    0.32556024290246   -2.45323889878027
O           0.82538609257438   -1.82046003143444    0.43913945885052
H           1.04494383862372   -1.07923777973976   -0.23701745252883
H           0.98897846884978   -1.34566146065788    1.33166570340851
O           1.09048869927012   -0.21758030725643    2.40675555126423
H           0.22964930408465   -0.01357887644973    2.78292959633531
H           1.36123480378011    0.59645798036321    1.92448371179517
O          -1.61814886779912   -1.57760914880463    0.10746637663065
H          -1.56676187465358   -0.64472529724242    0.41789922742689
H          -1.68088307730933   -1.47388190524517   -0.86765730562892
H          -0.26112625655630   -1.88883413644780    0.32800204581724
