    19
        -40.90976804
S          -1.64073427893684   -0.40076897908488   -0.98976317261092
O          -1.95642359881172   -0.58213026303448    0.41498128040386
O          -1.32028847058801    0.97761472695316   -1.31328421011980
O          -0.60247563050162   -1.32861469850171   -1.44211249043386
O          -2.92919173103909   -0.78240867440039   -1.81549599454308
H          -3.56349616895469   -0.12554446336633   -1.54450871010987
O           0.11269944434598   -0.94941504185877    1.90395847614201
H          -0.73798298660520   -0.77686499765045    1.41344697442819
H          -0.01678505892501   -1.76507800479935    2.39120039478196
O           1.14086555889172    1.57225875323781   -0.83983887393152
H           0.16794449995831    1.44197946786033   -1.01418573235386
H           1.51047025859585    1.95192604677574   -1.63907142021195
O           2.01733190636030    1.20129784956348    1.87094870319504
H           1.27024629818479    0.72019944294742    2.23953873171274
H           1.67622006348036    1.72904643644289    1.14256083408602
O           1.49824546373557   -0.88390131589151   -0.23929700623866
H           1.57802571378135    0.11720018021042   -0.43354118755369
H           1.14497706412363   -0.94376723857239    0.71912188032783
H           0.65035166670885   -1.17302921220473   -0.82465847277519
