    19
        -40.92135290
S          -0.70303961501541    1.06580954090429   -0.89708532064931
O          -1.31636714532769    1.43196063714473    0.38008707079824
O           0.63289043995646    1.60382762791666   -1.03167745505590
O          -0.76994113708288   -0.36868222019285   -1.12754606261305
O          -1.58840863244570    1.72874090588576   -2.02259622821737
H          -1.40966765593082    2.65755451742301   -1.91301657291559
O           1.96718475046022    0.32272432926020    0.82474655137942
H           1.63380968531608    0.97861862581033    0.16798819237828
H           2.05236235020599   -0.50275149316139    0.29048925984642
O          -1.26981648330897   -1.85921066891053    1.00001209221166
H          -1.13698050014128   -1.43241451345708    0.12312938418632
H          -2.21712831006897   -1.94698656153322    1.12054747181488
O           1.66894640672208   -1.50271736731819   -1.06350536499096
H           2.14893932611042   -1.28009436836163   -1.86310235038258
H           0.75442411741363   -1.18584645085951   -1.19736500738056
O          -0.12587484863768    0.12202382489297    2.13063119769301
H           0.86690501380485    0.17191721100341    1.67794598855419
H          -0.66690813211902    0.77474041495345    1.52960938827963
H          -0.52132961873026   -0.77921399995173    1.87070778518654
