    19
        -40.92453803
S          -0.42901564545283   -0.26136719280938    1.43891057028797
O           0.93435196175850    0.25690197525975    1.47236510079368
O          -1.34700198187093    0.73128898053793    0.89263499847538
O          -0.52212882987587   -1.53628030571755    0.75902939530000
O          -0.85968590684729   -0.52061602696578    2.93631747126340
H          -0.77288001656935    0.32467864259820    3.36736236132256
O           1.71030625297213   -1.43546920909730   -0.56377649929931
H           0.89475373998539   -1.68995214199245   -0.06615559592155
H           2.21520598744264   -0.92265312288877    0.07851339850761
O           0.58915340414905    0.23852491104098   -2.07844965348975
H           0.69253220291534    1.09399791709868   -1.48651202232748
H           1.14096497935799   -0.49359113874919   -1.57347685535934
O           0.69827664409321    2.07643949331984   -0.35856978885138
H          -0.21768238250990    2.32038520403456   -0.18055098106470
H           0.93411251655525    1.48775459989591    0.40297187230855
O          -1.75358199176759   -0.40693533256633   -1.40948639864369
H          -0.41159173418985   -0.04157861332426   -1.95043026876257
H          -1.71877428059717   -1.32562677386580   -1.11858205777162
H          -1.77731492956808    0.10409814415568   -0.56211504673564
