    19
        -40.91285595
S           0.02122724668450   -0.79491587853848    1.51563582636303
O          -0.22675073088630    0.63237035563046    1.75920115816356
O          -1.18286507711469   -1.55470695373159    1.32870140425506
O           1.02676047642147   -0.96698358499579    0.47327192674371
O           0.71162665032089   -1.34538999056595    2.83480143351748
H           0.00077949920834   -1.48436866528326    3.45432712864867
O          -2.49399880053313   -0.79369131013757   -0.87449708892577
H          -2.10706562665315   -1.03923218757097   -0.01033779905866
H          -3.04815374309859   -1.53131982558856   -1.13656604622643
O          -0.07557740372192   -0.37746386823285   -1.95344280695128
H          -1.02920972223363   -0.46499497449288   -1.74270916563052
H           0.38002155505073   -0.78540352881955   -1.19771125330793
O           0.72573838030459    2.06012362169442   -1.72362472948227
H           0.32492892591653    1.15170195547856   -1.90562639209357
H           1.34822186573443    2.23178067306181   -2.43290594041229
O           1.68604627154101    1.45078486940069    0.51010784764347
H           1.31531177441617    1.82156099599295   -0.40866734483537
H           0.82306493662411    1.32925694101762    1.14461099338400
H           1.79989353201475    0.46089136569807    0.36543086820264
