    19
        -40.92159004
S           1.25889566348229    0.38447381419549    0.66844778492416
O           0.96485204140638    0.48909694612089   -0.75290974167910
O           1.31624156664391    1.63601929549608    1.37340726552362
O           0.35730433031080   -0.57993672833060    1.31238945770251
O           2.70737274293756   -0.25423634310242    0.74095097423672
H           3.03194983600102    0.00083862425977    1.59911337901393
O           0.58139517276721   -1.78396078845242   -1.99443826315605
H           0.46500123599664   -1.61066622425884   -2.93080794140303
H           0.93273729699174   -0.95340318555615   -1.59502957431077
O          -1.34117167232951    1.74394925032974    1.50384051339261
H          -0.37484091962071    1.88936100323568    1.50695744318215
H          -1.49843530078492    1.07001340972998    2.16929404424321
O          -1.67134438351863    0.84572712300078   -0.95797316340341
H          -0.71728491801612    0.95606759733689   -1.14012063546164
H          -1.79362396308610    1.30811946555263   -0.09495197865335
O          -1.29462113706896   -1.51957299582778   -0.27665736959483
H          -0.66512134662304   -1.83265680338884   -1.00935588554089
H          -0.62685421293757   -1.23079663918129    0.48704946193073
H          -1.63245204251572   -0.55843682117314   -0.60920576096228
