    19
        -40.92120611
S          -0.12314945954421   -1.23730708509413    0.59764279179977
O           0.51839575119289   -0.91155089551395   -0.66581670295438
O           0.76647317889492   -1.64534009388468    1.64991479508804
O          -1.05438712613143   -0.18370777383281    1.00228403705933
O          -1.04314179753321   -2.49854359398618    0.26081240596179
H          -1.10382512333961   -2.96994234190506    1.08624498802251
O           1.78716138364459    0.81419508943287    1.81427665804958
H           2.59915750014170    0.76539050502029    2.32317376741152
H           1.40095472212888   -0.08296665234944    1.82848108566401
O          -1.46726915191827   -0.21968751239925   -2.22766945137840
H          -0.67990044408724   -0.62008604745754   -1.79191249903122
H          -2.19641735336937   -0.82156180347672   -2.06721621919748
O           1.36815846090089    1.62499646351206   -0.68602247069185
H           1.63015918349965    1.58505290917243    0.25884550453139
H           1.33818431305459    0.68493665466439   -0.94639730658771
O          -1.12283079419190    1.71465031028755   -0.58235105037543
H          -1.37923662243111    1.14377689712238   -1.38018372439345
H          -1.17154362188377    1.00421619371992    0.19334742311576
H          -0.06694299880369    1.85347879614878   -0.66745403265835
