    19
        -40.92003354
S          -0.21928342883204    0.00166377053240   -0.84956371817761
O          -0.85304030490240   -0.95825408342007    0.01864966640131
O           0.75127768416419    0.82486860322851   -0.16789839556953
O           0.41812936659899   -0.69904148142508   -2.05142889915017
O          -1.26502493121124    0.89283363806329   -1.52381078661667
H          -1.35914036032454    1.72873608499052   -0.93521862018127
O          -1.26841827373623    2.70158594968239    0.23798638119715
H          -1.68183880772977    2.13747728694735    0.92963761987592
H          -0.31716407539573    2.63885616570815    0.38713260030556
O          -2.16525254246088    0.65844589595527    1.70553322386733
H          -1.71375314157821   -0.03302051380546    1.18412270057289
H          -3.09295499195917    0.41531967426439    1.73253288600490
O           1.66250372307707   -1.25124084237950    1.28508822091344
H           1.48683591412298   -0.34972230615874    0.96359081377975
H           0.79214232677034   -1.62980934285617    1.44559097013268
O           2.31759039858404   -2.10755565424094   -1.11384597808348
H           2.17809436783125   -1.92569339943948   -0.14763503970744
H           1.16583555050553   -1.32792824396793   -1.75300114434634
H           3.16346152655754   -1.71752120166855   -1.34746250123710
