    19
        -40.91520701
S          -0.74709453009894    0.86593693845318   -0.49769600886876
O          -1.55330418270467    0.27253575550713   -1.51384505810732
O          -1.33453200907925    0.57271587222821    0.87555339952645
O           0.65189350220421    0.48356086271889   -0.51871716638532
O          -0.81735617405026    2.41662609391308   -0.58284955438846
H          -0.04271191051865    2.73545121209781   -1.10951974459262
O          -0.62239422604401   -2.19628036326808   -0.97674793282979
H          -1.12101591898019   -1.40157833856265   -1.23355951191977
H           0.20812579215692   -2.14769955273884   -1.45487399673320
O           1.50325533865731    2.68317391152904   -1.74731377655186
H           2.18316959321852    3.15064750051184   -1.25556761648312
H           1.52056926879848    1.75524186006990   -1.45229145927129
O          -0.20408347332503   -2.64221057868874    1.65326684115392
H          -1.05783911670191   -2.84381556318773    2.04019099358482
H          -0.35654491896202   -2.56203939846167    0.68742917561913
O           0.67837954629088   -0.21037599664321    2.12004591170646
H          -0.55532179019128    0.31431423285080    1.52481736101234
H           0.44826665689660   -1.17624575515575    2.11141332392893
H           1.21853858242744   -0.06995871316931    1.33026480961937
