    19
        -40.92315394
S          -0.72089028689597   -0.52459648190150    1.44469437114255
O           0.38608208301194   -1.21992980767016    0.78511981699695
O          -0.27318385563403    0.78141210530156    1.93553699498528
O          -1.89078717489721   -0.46014075894538    0.61102767300722
O          -1.08549491081547   -1.35327142886135    2.73319303275625
H          -0.41143495101008   -1.08497215247182    3.34978061337599
O          -1.24706043396975    1.02462320161485   -1.45524073311134
H          -1.73849343087748    0.57900939060267   -0.72838298702666
H          -0.77035676377595    0.28517838970011   -1.88986350449619
O           2.23304849170882    0.21439255324905   -0.47067154223364
H           1.74059502797481   -0.39292368195822    0.12413275637395
H           2.12481701269484   -0.15811210301346   -1.35221660153294
O           0.09944013270715   -1.25713502351222   -1.85598381211098
H           0.15026957439856   -1.37372898439981   -0.88127652487337
H          -0.42854318515272   -1.98691556104998   -2.18284178071877
O           0.53108881285450    2.05352938487607   -0.04303744662279
H           1.34012810085248    1.45946994372200   -0.26818856042985
H          -0.23845583596534    1.75500345651076   -0.72188787498137
H           0.19923159277075    1.65910754824286    0.86610610952588
