    19
        -40.91041363
S          -0.42343544036554    0.83818693098104   -1.43383749682494
O           0.36988748933682   -0.18717458835620   -2.04459489913996
O          -1.83444339000059    0.32865459122656   -1.14189359921022
O           0.13498380625004    1.49197264738143   -0.29681038019421
O          -0.71640201125887    1.92677441388656   -2.52743538792331
H          -0.91332655595853    1.44270782980604   -3.32594030247298
O           1.66328522702612   -1.90360971925714   -0.38158654970219
H           1.16865520340016   -1.36106566111146   -1.02038333887463
H           2.39707314152674   -2.28917584831787   -0.86357594383321
O          -0.38880265764522    0.63338302525107    2.37417373341971
H          -0.45224179101988    1.40611990957433    1.80183258836342
H           0.55052953069834    0.34721270812850    2.26531481761196
O           2.02069969913378    0.14768440090394    1.38647032993166
H           1.96954127686813   -0.70586092611367    0.91766709512419
H           1.74436849316951    0.80561917678947    0.73706296465654
O          -1.71933629213281   -1.03269493339049    0.93430885184730
H          -1.18161546127017   -0.44909295750125    1.56423521837246
H          -2.57838036349152   -1.15871284357041    1.34444859336126
H          -1.81103989425828   -0.28092816635412   -0.28945628451974
