    19
        -40.91832172
S          -0.65577064480840    0.22735492553664   -1.20829906441470
O          -1.43322493173478    0.71951981789911   -2.29722472100719
O          -1.59687316018681   -0.42496344581451   -0.18173339456693
O           0.43837080642022   -0.65372226153791   -1.49134199601866
O          -0.06037906488841    1.44385829242996   -0.41839342026342
H          -0.83933329187934    2.03714282986336   -0.27898195705230
O          -2.47509948960955    2.40176234246896   -0.48478446802757
H          -3.02894298016718    1.83174819999494    0.05580360660406
H          -2.44175945482489    1.99329274360236   -1.36592256544054
O           2.50422838052552    0.25264842733643    0.00675994664290
H           2.25993826252063    1.17956737156776    0.06727932368592
H           1.89403008645218   -0.12696177943757   -0.65040757730628
O           1.60925007923866   -1.04994446529069    2.15560817100534
H           2.31953278563229   -1.55289995956828    2.55763451246447
H           2.01677206180482   -0.52215579091644    1.42882425985479
O          -0.17233020184446   -2.29986010388870    0.66459809599301
H           0.33622240082784   -2.33974347229610   -0.15464702875264
H           0.42932069798282   -1.88666934423008    1.33777236108001
H          -1.10395233145712   -1.22997432768521    0.25745591552353
