    19
        -40.91641679
S           0.35664782362706    1.09212459580887    0.17817803134970
O           0.42607405743422    1.10197494159875    1.60773069312106
O           0.98415826063685   -0.05686762470064   -0.43944914130134
O          -1.07936973614231    1.20968928291839   -0.29450366217623
O           1.01527656457408    2.38484372015579   -0.39618981243291
H           1.94508539957188    2.36289899193868   -0.08683882620830
O          -2.37862849934196   -2.09043539091531   -0.48177643555631
H          -3.21223329747753   -1.77618618022036   -0.12732099359936
H          -1.72778698813041   -2.03900874585591    0.24852412160125
O          -0.43602722203441   -1.57027544498877    1.33363986414380
H          -0.45250785085512   -0.81954448114483    1.93688115745595
H           0.25127425330252   -1.34984786034986    0.68920674849204
O           3.10056647713143    1.38048906150937    0.85689538748301
H           3.04973034971891    0.53815576705536    0.39364419402401
H           2.55014540120700    1.29004538302982    1.64407555094223
O          -1.19830234733240   -0.43667206791528   -2.15345778086132
H          -0.26820499298825   -0.68556508096020   -2.07973559120316
H          -1.71058932000242   -1.14279248600955   -1.67552540530059
H          -1.21530836258547    0.60697363911845   -1.15397807989067
