    19
        -40.92217215
S          -0.67450328038528   -1.20540130493604    0.01175648049101
O          -0.12008698700370   -0.65446008043371   -1.23164740570721
O          -0.15831122007579   -2.50530671789812    0.33133311696310
O          -0.62431783128442   -0.22474199532408    1.08152729696799
O          -2.23611160598604   -1.38789073064352   -0.28411332843058
H          -2.32813784194775   -2.30030128544344   -0.54217439392230
O           1.69128442974174    1.12854793932494    1.10898112380664
H           0.88716792283784    0.78115625296735    1.53380915831504
H           2.16621617517850    0.31289620158548    0.83518175756522
O          -1.86824442713211    1.85295978494817    0.09715630429674
H          -2.61766141686323    1.53675031587830   -0.41121323854637
H          -1.55577285247465    1.08484133169373    0.62854985347330
O           2.24829885924149   -1.31225661527610    0.17574176890126
H           2.38217322797388   -1.36525840967282   -0.77354971939422
H           1.46937504529807   -1.86682361404584    0.35915393815942
O           0.45518882999987    1.73734262190940   -0.97386120733255
H           0.25745774453551    0.72829213731103   -1.21537173840956
H          -0.44847359416688    2.03614991655579   -0.62190739562798
H           1.07445885207752    1.62350424165278   -0.10935239176238
