    19
        -40.92174072
S          -0.13722573514948    0.57217687206601   -0.67569167247900
O           1.22777915748374    0.14132885476016   -0.75293394288515
O          -0.40408986618632    1.54334426954935    0.36422809544612
O          -0.54613984420219    1.18049895276579   -2.03463641237550
O          -1.06583104112594   -0.61924421928659   -0.52896262483738
H          -0.74700696690698   -1.30867503005643    0.24900402380367
O          -0.15394811551357   -2.09166948086612    1.23327894548264
H           0.62628343576113   -2.45785243334630    0.75641392695054
H           0.21501455610931   -1.39672974175600    1.82802637990490
O           1.96548571011840   -2.41415270873794   -0.34091322929311
H           1.94996521129433   -2.88467817478889   -1.17594423175614
H           1.85892419010991   -1.46777085907814   -0.55459590893066
O           0.98386198592003    0.10844194146271    2.19177977257055
H           1.85707880465212    0.12111545764652    1.79119153608160
H           0.46286791436400    0.77392105298354    1.71279528681595
O          -2.43885507005177    2.59690685743321   -0.96215501657998
H          -2.37999892110919    3.55128773297213   -1.05375454354108
H          -1.37372460493422    1.69928352318928   -1.86034433394553
H          -1.90044078063056    2.35246713309425   -0.18678604043021
