    19
        -40.92174069
S          -0.06895952259257    0.17561571403342   -0.87585973586250
O          -1.05489308600931   -0.81619080885998   -0.56105604844767
O           1.28619552301876   -0.32707510380688   -0.95704418400952
O          -0.43328356773439    0.83041624170161   -2.22580259927262
O          -0.14020011725790    1.33010209360480    0.10672898795917
H          -0.15960181834338    1.00089080018836    1.14268736108340
O          -2.54397625975285   -0.71803420027448    1.67902227021316
H          -3.34680642886087   -0.22494759284861    1.50215571308075
H          -2.11888903991143   -0.87402918357016    0.81441613264165
O           1.01080239169800   -1.71329226744784    1.35125130050799
H           0.30194249192251   -2.31375932098705    1.10601492697349
H           1.32068560736608   -1.31580535320899    0.52077902074477
O          -0.23329295732547    0.39065903932400    2.39018126118027
H          -1.14974790083477    0.02966661230183    2.38391276569866
H           0.34915404404032   -0.39286715637331    2.24997427397278
O           2.01987150090810    1.55443808264441   -2.66905781327460
H           2.12670317887281    0.88390759131467   -1.96922076195763
H           2.44544345211923    1.20658728249770   -3.45683634399821
H           0.38885249868313    1.29371749976714   -2.53224651723211
