    19
        -40.91469043
S          -0.22615084015080    0.33900929504055   -1.31885459601361
O          -0.67685618689617    0.98128760206284    0.02074734753425
O           0.85103043035028   -0.57907944521936   -1.03237786827413
O          -1.35840724280136   -0.19889442036576   -1.98710419967784
O           0.34838575291383    1.54202729656344   -2.09665271254810
H           1.23823868192484    1.72789958143598   -1.69587538884866
O           2.62136855585247    1.38210568830836   -0.85629451914856
H           2.25081995229854    0.49482518298492   -0.69502963991605
H           3.42705580847027    1.26079221402390   -1.36493515030342
O           0.44458645348821    0.00376357358491    2.43982888134348
H          -0.11173864008726    0.32675282117686    3.15130226580654
H           0.26151000533171    0.55883571064008    1.67003043429120
O          -0.41812611513020   -2.10126366691787    0.89141234833547
H          -0.01595720794062   -1.61148376529670    1.63082001977411
H           0.10888966834097   -1.85063399465653    0.11849586308971
O          -2.53512151834617   -0.61242382421217    0.50225953509526
H          -1.52618939358794    0.44024162127487    0.30747489136398
H          -2.78782225379272   -0.76143921918813   -0.41674653628681
H          -1.89551590021079   -1.34232225123315    0.73149901438809
