    19
        -40.92120600
S          -0.66946603382404   -0.61673275285613   -1.03616322226743
O          -0.90022451898180    0.06374020440000   -2.28072696908523
O           0.73404046284024   -0.96863799148172   -0.81931270482715
O          -1.23414942067630    0.02905745716796    0.13787123844482
O          -1.43899345675710   -2.01332420286550   -1.12902446403370
H          -1.43453897612706   -2.22065210405398   -2.05866725606127
O           0.42214217439359    1.89849217092736    1.09641461819637
H           0.69804410600529    2.17028838971434    0.19474146046779
H          -0.42824141644826    1.44599422504112    0.93943184024146
O          -0.54650595559476   -1.54252686844871    2.11692466513279
H          -1.00036680648343   -0.98490485882454    1.44362022414847
H          -0.64957145179674   -2.45025453360007    1.82520811058872
O           0.70550981367348    2.06372754844804   -1.54521054406770
H           0.55495073721957    2.80073904615225   -2.14090435915479
H           0.15817959115815    1.32626441884604   -1.87797716065330
O           1.57436706893244   -0.29242028764606    1.40703158168111
H           0.87429150014621   -0.81838054422727    1.91885340760026
H           1.37204080706284   -0.60148235148184    0.42121596478545
H           1.20849177525433    0.71101303477565    1.38667357889982
