    19
        -40.92079007
S           0.50747246460742   -0.36731981779588   -1.34781724041670
O           1.55752891021279   -0.09776100269030   -0.36336825464522
O           0.30046151717962   -1.77611738887473   -1.56295282739646
O          -0.70646348317755    0.37440820139360   -1.03612902650185
O           1.02476277931562    0.24666507948977   -2.71177578653979
H           1.75519454421478   -0.31798337423102   -2.94455664719120
O          -0.24036038486460   -2.63845047482497    0.87572861267372
H           0.03572507171452   -2.39055855886883   -0.03328991330042
H          -0.69417456757179   -3.47967300726311    0.79656864652771
O           0.72323553357160    1.11880761613025    1.62428824359211
H           1.21529429350309    0.59721855314186    0.85172642061708
H           0.38422705371303    1.94234994780220    1.13742056667402
O          -0.33468600995121    2.76557212849600   -0.02512283149135
H          -1.19404192192752    3.16578467315299    0.12193011891594
H          -0.48793707692702    1.96843657099153   -0.58559876215898
O          -1.31542178737107   -0.30621991137328    1.46842934992335
H          -0.99096869219355   -1.23742374616246    1.46560387339265
H          -0.14750091036641    0.51582054643211    1.75037954487806
H          -1.39234734238623   -0.08355602238789    0.51853589887057
