    19
        -40.91892663
S          -0.45398164478269    1.36029014657544   -0.01423350287524
O          -1.13346392515126    0.33793828626095   -0.83184481090796
O          -1.14657006678213    1.57848471242418    1.23743636498267
O           0.95120483711471    1.06508482718278    0.11795786308455
O          -0.56270271431773    2.70187434169919   -0.84449265956561
H          -1.45027781300099    3.00947495588587   -0.68546374712937
O          -0.79384871021926   -0.67106770487739    2.48836727463398
H          -0.88843770853486    0.24556144338771    2.12250081754228
H          -1.56050016203864   -0.81983941331571    3.04617780005455
O           1.21827769898173    0.03218268600223   -2.36367773553111
H           1.24866223707098    0.66655870574037   -1.62806735703586
H           0.28265031942705   -0.06418779480194   -2.56410633681704
O           1.90792189841049   -1.48216712931787   -0.27291727669698
H           1.85502137906374   -1.18926332866915   -1.21078874419250
H           2.00161779587692   -0.64792006624539    0.21405989733008
O          -0.51789135922699   -1.81476706106985    0.23601224928625
H           0.53013392118314   -1.81424302683732    0.03852435552916
H          -0.62546656001963   -1.51905920488794    1.20998747285040
H          -0.86234943186506   -0.97493536418991   -0.29543192441876
