    19
        -40.91984719
S          -0.24011749276362   -0.87555303821901   -0.59788151147072
O          -0.85062533332660    0.37565289073566   -1.09098729220565
O           1.19098182870157   -0.66081040315686   -0.35704257600029
O          -0.92634933685153   -1.37587921214887    0.56560051196930
O          -0.37664008720160   -1.92402654124076   -1.73349859149694
H           0.28332911597738   -1.64576758992817   -2.40525672118165
O           1.31565317694959    1.24455462361872    1.41990495863381
H           1.33861789274228    0.45662638892505    0.81954678603696
H           2.06613703501742    1.78944562878293    1.17359668764928
O           1.80061443711563   -1.00402914215539   -2.88991199188103
H           1.82640812223237   -0.72319142606661   -1.95327261569666
H           2.49185109673815   -1.66099661643222   -3.00038195713959
O          -2.25688628163237    0.16611959139143    2.19269257935632
H          -1.89478379241252   -0.53347768135446    1.59497128184234
H          -1.89076851205500   -0.01384306816773    3.06153786174799
O          -1.06916965711317    1.91957663735172    0.78816101128931
H          -1.65174911955464    1.35336772879083    1.41598533509510
H          -0.11756855799164    1.81300782339559    1.12946578217418
H          -1.03893450457670    1.29922338587702   -0.13322953871846
