    19
        -40.91865318
S          -0.97664636234704    0.07776729903326    0.21440503645789
O          -0.45650473879121   -0.86647666534670   -0.87153966963406
O          -0.47497738991345   -0.37955559298220    1.48929521809899
O          -0.67900301802431    1.43167147567157   -0.13017335208831
O          -2.51379231524608   -0.11710096202713    0.20189115528323
H          -2.70239886856091   -0.95401588011550    0.69955893325183
O           1.81706284057146    1.06157909782456    1.13312519997862
H           1.14234098162613    0.43320484404790    1.43257936552993
H           1.33519489732905    1.87643940892693    0.96319198578786
O          -2.42678521618567   -2.15530101576511    1.81724768951960
H          -1.53915270279810   -1.76898479134823    1.92694072709650
H          -2.87822167881018   -2.06127834485638    2.65984100371037
O           2.79206718099720    0.48146151011401   -1.31379869898205
H           3.14387996027108   -0.40962656793856   -1.28413274756241
H           2.54431210349537    0.71219935016999   -0.39182019858127
O           0.46933971637615    0.73767342741939   -2.54057199686418
H           1.41563718761173    0.69437444836464   -2.24688958123145
H          -0.10171978529793   -0.29480573014208   -1.67308517473140
H           0.08936721768966    1.50077468902798   -2.08606491505350
