    19
        -40.92003343
S           0.19252286286028    0.75549820372854   -0.41147065009931
O           0.59607819624004    0.60014517288733    0.96323886358473
O          -0.53351422286595   -0.38481363618831   -0.91831885952532
O          -0.62372510530248    2.03724666454576   -0.59042907725492
O           1.40622009956953    1.02885092512371   -1.30293674487016
H           1.71670774410742    0.11774226157619   -1.65970610332675
O          -1.88366454161975   -0.70187738313605    1.38931893446290
H          -1.12867830864889   -0.51926727746068    1.95784629844219
H          -1.50095283791772   -0.85866407398842    0.50838682044690
O           2.29460069997659   -1.46374250673810    0.78304857922825
H           3.13445916092553   -1.22964182898938    1.18326171074616
H           1.67835017482131   -0.73400227795879    0.98724606614998
O           1.89396610656063   -1.38634262097661   -1.85599360248363
H           2.17177770485418   -1.62477004710412   -0.94299576546332
H           0.96022077740253   -1.62270541624495   -1.91257744910759
O          -2.78446255909533    1.67116059834145    0.70076603980260
H          -3.51475899203919    1.54406850613951    0.09011062678059
H          -2.58066398830518    0.78004225206954    1.08895188874947
H          -1.49448298151334    1.99107247439276   -0.05774757624721
