    19
        -40.91167208
S           0.61257833963799    1.19625529376925   -0.80214245758914
O          -0.23450616112400    1.76827110953415   -1.79862337077350
O          -0.10060897952264    1.23052677259307    0.55220032688532
O           1.15451949946766   -0.10044736897456   -1.06528460997999
O           1.83736244451794    2.14825655446224   -0.56000791213153
H           1.52955279801711    3.05150011310754   -0.60612967144663
O           2.15242257496752   -1.47767182040793    1.03694268183891
H           2.57489940136782   -2.27050248147561    0.70080421999968
H           1.91330073014376   -0.94196351388877    0.26003208947883
O          -0.45416575798748   -1.53992827581405    1.80354401668216
H           0.51096775921293   -1.62178094774984    1.66971110921743
H          -0.59267362622226   -0.64401856056241    2.11905936848420
O          -1.31432962989828   -1.39666960471744   -0.72873958205903
H          -1.11656972307554   -1.63881307573315    0.20580299387135
H          -0.45997575430955   -1.17093428817901   -1.11623838581124
O          -2.39538768621557    0.91837747215418   -0.31804623430683
H          -2.22362581956197   -0.04789199811073   -0.51898555767960
H          -1.13500000736351    1.15059420211104    0.31713394587699
H          -2.25876040205965    1.38684041787233   -1.15103297057066
