    19
        -40.91923795
S           0.78596425544207   -0.57475467745337   -0.01582484337717
O           1.63507708023946   -0.86587722367476   -1.12101252692961
O          -0.46894237671365   -1.28549494464155    0.03111210343762
O           1.51407249075551   -0.75143527686059    1.31505535972825
O           0.46848522958035    0.95797771407288   -0.02177555853985
H           0.46290261272683    1.24658459482544   -1.00953772538833
O          -0.99465353196869   -0.90195473988540   -2.58308818916789
H          -0.99206668317738   -1.10999474217075   -1.63162885699611
H          -0.50681593690574   -1.61292989759732   -3.00531175123473
O          -0.95952345767434    1.61256364504706    2.25986299671042
H          -0.50133825494268    2.31639058802860    2.72327033341659
H          -0.54037089824180    1.53038300440333    1.38896639807122
O           0.51082586810356    1.28818430297373   -2.51834496671127
H          -0.16629836963663    0.59580475577550   -2.71252541125098
H           1.36074246801219    0.86041912105019   -2.67158712474658
O          -0.54143596823148   -0.98817494577876    2.75276857654393
H          -0.83647369391271   -0.05211027838402    2.78205809443084
H          -1.01213066984085   -1.38738876602102    2.00810087503213
H           0.78197982635339   -0.87819224380443    2.02944222700654
