    19
        -40.92246930
S           0.97343047812065   -0.30491600086612   -0.32376133664147
O           0.23366772213026   -0.17903681532575   -1.54296340399084
O           1.54425311762331    0.92328507931373    0.17806620755953
O           0.11071355946171   -0.93393932387248    0.76726061196397
O           2.09296028447783   -1.35156888728987   -0.51394624008559
H           2.58652073053103   -1.33168233592136    0.34390855787778
O           2.83491770914594   -0.70045694808369    1.89185631765480
H           2.57452108109588    0.17449371064655    1.56065885968263
H           2.12449924762029   -0.99706419988350    2.46762652984100
O          -0.75718835709738    2.29721845207207   -0.14792336374355
H          -0.85595062714200    2.30323448114248   -1.10327965045483
H           0.15500639014391    2.00728206938420    0.02426547111265
O          -2.41086057496424   -0.61720823469421   -1.75075452565458
H          -1.45454231521860   -0.45188338103178   -1.85508146047357
H          -2.56439336270093   -1.51870723025179   -2.03829081328028
O          -2.08271219650452    0.18877189062745    0.75317916309559
H          -2.44984392652837   -0.13440995746206   -0.10368698226487
H          -0.88806538220662   -0.47880396070882    0.83002104867974
H          -1.76693358798853    1.10539158221086    0.56284502911269
