    19
        -40.91469045
S          -0.24527473980915   -0.23839062021471   -1.33628987307985
O          -1.03676951689733   -0.95812155890903   -0.36635907883754
O           0.50018463839944    0.90338449730543   -0.59390311095057
O           0.68982769468124   -1.00169353965812   -2.08523531997451
O          -1.19922735193670    0.53174145042493   -2.27395748590917
H          -1.93864469553634    0.86424123764103   -1.70004029836092
O           0.97485338609056   -1.54018017605181    1.43556150813385
H           0.75409036534346   -0.78957374754354    2.01548306391902
H           0.20363360395246   -1.63586084008658    0.85766498176071
O          -2.92952693898614    0.89377037441679   -0.37481798630224
H          -2.40342941290864    0.15451223231671   -0.01801190776979
H          -3.82669422077265    0.56992254790861   -0.48759748952538
O           0.33553566228139    1.01298515981687    2.23910845950364
H           0.18894337874808    1.19942420829505    1.30210750618613
H           1.03212862039897    1.60368792431004    2.53221041391222
O           2.62798461667484   -0.33881401464449   -0.19995009534053
H           1.46589573875573    0.53392346706864   -0.42984355316002
H           2.20417012673865   -0.91026605326129    0.49857666799254
H           2.60231905480403   -0.85469255915408   -1.01470641215502
