    19
        -40.92120617
S          -1.32576700707515   -0.35478711138702   -0.13396538016906
O          -1.72576045078151   -1.43521117302594   -0.99290764076250
O          -0.61317968268433   -0.80037403245674    1.06387135407002
O          -0.61695687452257    0.73116364282352   -0.79126706954714
O          -2.66810769669694    0.32008322846657    0.40862335812194
H          -3.29670852237474   -0.39523086272436    0.43107341797546
O           0.81844885796803   -2.15748482644000   -1.34779611681083
H           0.85494147440109   -2.76522521518691   -2.08940182550449
H          -0.12732021889729   -1.96401644373661   -1.19881075653557
O          -0.10013709345049    2.41519014405577    1.14674893821773
H          -0.87217534979619    2.46253132844639    1.71367233591828
H          -0.38870779515224    1.94820986293827    0.32889293894496
O           1.99912567343385    0.20030928993855   -0.97789982731702
H           1.83192192684674   -0.75083506743555   -1.15107158642821
H           1.14871316057002    0.61921040378182   -1.20959700548767
O           1.49456160475797    0.43335090427341    1.45478679748306
H           0.65201577677486   -0.19625396221971    1.39704077692240
H           1.88502821958337    0.34482776117484    0.46502132428872
H           1.05006399710921    1.34454212864001    1.48298596662480
