    19
        -40.91833247
S          -1.07768788981847   -1.29865425651128    0.36554818450083
O          -1.22343167034113   -2.04805726683519   -0.85741959263252
O           0.28933202262408   -1.16002024696834    0.82763944105897
O          -1.75135446932230    0.00730800350501    0.29204512744411
O          -1.84055619287441   -2.10798556234066    1.49353780377829
H          -2.64707072385429   -2.37475141752336    1.06292074832452
O           1.21110491883948    0.87995540386263    2.13224788263928
H           0.87859584631427    0.01216211488779    1.78699379925662
H           2.15731114221592    0.89082010755271    1.97395943353087
O           0.97951854461611   -1.00901342502456   -1.85101953174511
H           0.11113275950921   -1.42880828100306   -1.67231768881559
H           1.53133255071273   -1.30725113759604   -1.12221198806088
O           0.88241958144253    1.60373577728088   -1.73532853828424
H           0.95779252899305    0.61167963910345   -1.81017744449842
H           0.40937224215931    1.89270647035092   -2.51785788965391
O          -0.33446636223832    2.00492350745021    0.45744317774135
H          -1.02647820850807    1.18021817651871    0.41321002635794
H           0.31590844743672    1.71710392675695    1.19488959064718
H           0.17722492211231    1.93392845651622   -0.43410252157028
