    19
        -40.91373472
S          -0.38598407716609    1.40445609682426   -0.81441363991388
O          -0.44892425258585    0.18624582474178   -1.57707522957397
O          -1.74649854524492    1.74360900026924   -0.22488875618618
O           0.63491555416359    1.47153830858608    0.17866308744949
O          -0.15662815259507    2.58081769350363   -1.82898023831526
H          -0.78165946712140    2.48717578285140   -2.54614428517057
O           1.39539129376341   -2.37677245555519    0.93408558379982
H           1.62850341243508   -3.26356908548308    0.65538619152162
H           1.80729984374122   -1.76217973988292    0.28745154814511
O           2.12487280700922   -0.56219404384871   -0.91638339497194
H           2.07078022618474    0.23862053638827   -0.37914057181347
H           1.31404792416691   -0.54693301621075   -1.44277576515546
O          -1.09906011852725   -1.44624972807342    0.58958770053735
H          -0.98869027688209   -1.06961989830796   -0.29371083504179
H          -0.23941398946049   -1.86768619385820    0.81462928184491
O          -1.44751683809558    0.69450626215996    1.99420140797125
H          -1.39846282442361   -0.23469867764403    1.61635398301778
H          -0.53812722029997    0.95336820648342    2.18044232169384
H          -1.74484528908098    1.36956513703761    0.77271160014159
