    19
        -40.91451135
S          -1.49475961547376   -0.21916044056562   -0.32689167264043
O          -1.21983158561707   -1.03741391149587   -1.46564882459194
O          -1.12722913588654   -0.95303810672275    0.94970691219249
O          -0.96060147924067    1.10845769353070   -0.31773425896494
O          -3.06505386035938   -0.06950562969127   -0.22787025856427
H          -3.46165677459701   -0.90034521355500   -0.48329262676393
O           0.74126650846706    1.04552808046593   -2.47161063461705
H           0.15051207120179    1.32571217140643   -1.75617200579567
H           0.20813504933920    0.49528889980205   -3.05052560384127
O           1.47472032217959   -0.91346278751033   -0.74712951190353
H           0.62120763286722   -1.32440009141200   -0.92095091822325
H           1.53417727457576   -0.18570722048353   -1.39689278643798
O           2.24917603689176   -0.01906682249356    1.65033511843652
H           2.59514876866987   -0.77572185266845    2.12654234637098
H           2.03444834750727   -0.34033703855879    0.74500087447934
O          -0.11513354933700    0.85547626104524    2.27955106299809
H          -0.72584133790875   -0.22555717229005    1.63581632221869
H           0.84765363847826    0.60321823704409    2.16958331386472
H          -0.28633830175643    1.53003494415707    1.60818314178255
