    19
        -40.92120609
S           0.60927841854492   -1.02442945059851    0.69282029288659
O           0.43255142414374    0.25699641557723    1.37661571312955
O          -0.15814662757806   -2.09092907237694    1.27477409426462
O           0.46938632454058   -0.87318208451127   -0.74645108909062
O           2.14763039492546   -1.39920159598361    0.90383373929343
H           2.15529663074407   -1.91658876285654    1.70360834763131
O          -0.06252880767416    2.12298577484222   -0.16976160257555
H           0.10041113606004    1.42866245998964    0.60516174343249
H           0.78047591986809    1.99612106725461   -0.71898489244238
O          -2.43392169037727   -0.79601390943058    0.75875842495896
H          -1.62407255026641   -1.27639064124580    1.01838273554042
H          -3.15950740156342   -1.41459657388271    0.86611130291755
O           2.01753174581777    1.16090451349625   -1.31635020741190
H           1.55417325423596    0.29483362945389   -1.24373347183539
H           2.81823268297666    1.07964897608552   -0.79475051782712
O          -1.66281356797897    0.62239317876507   -1.35863347985739
H          -0.83283594005893    1.63448255236278   -0.72514107327598
H          -0.96051113817275   -0.04070188324934   -1.49837264552047
H          -2.19063022808690    0.23500544631829   -0.62788741424092
