    19
        -40.91117807
S          -0.61858578773138    0.66172174334806   -1.54644941876868
O          -1.41459215332621    0.77373885801346   -0.35129225845203
O           0.86554758088461    0.69163453091019   -1.16215891364306
O          -0.88817544343585   -0.41980129987757   -2.42123825975517
O          -0.78407418857563    2.01180915274798   -2.33370287707193
H          -0.86445486290828    2.73026713622976   -1.70789031020865
O           0.37106126769086   -0.65458935055972    2.84256350535259
H           0.43678337539286    0.25861924628329    2.49299255360842
H          -0.20909801994536   -0.61487109251389    3.60429739867450
O          -0.56324687278402   -1.73807202074540    0.56087778262955
H          -0.19068570389232   -1.49393881586174    1.43761424642098
H          -1.12227983481879   -0.99742130449612    0.29468958439913
O           0.35747968340316    1.68840026351274    1.48191303160278
H          -0.40210383358474    1.42773667433823    0.93241665788563
H           1.12634282423217    1.61729354265319    0.90878752962438
O           1.27793227530653   -1.73746914080443   -1.25857251685788
H           0.78263812722052   -1.94635920799409   -2.05931319769848
H           1.19247593612040   -0.32930387531569   -1.21348355136689
H           0.64703562075418   -1.92939503986499   -0.50205098635542
