    19
        -40.92120138
S           0.71527783488475   -0.62137529661233    0.18333395070359
O           0.84504145811397    0.53688532199164   -0.67862226904973
O          -0.71500623436655   -0.58665208939679    0.78860040202317
O           0.94678074408480   -1.87717350041956   -0.44534350881542
O           1.62309355716891   -0.45897219524590    1.39685211620322
H           1.45490436973172    0.43335496742877    1.87148379743914
O          -0.64536463249068    2.33694041557904    0.61618772398489
H          -1.43724674977801    1.82311618875384    0.79438434931764
H          -0.12797863934221    1.81567283821665   -0.02757901302429
O          -0.52853583812703   -0.64415526221983   -2.68595473926833
H          -0.01607094486979   -0.07268018004474   -2.08859456195521
H           0.11750234090144   -1.19844298183925   -3.13001476601819
O           1.17670365657315    1.81716373645215    2.43311535396598
H           1.92458638612031    2.39506171362680    2.26340018005328
H           0.43347237485136    2.14094507805774    1.85894975278998
O          -1.79982028398201   -2.14962756371052   -0.88080598498401
H          -1.53609906595403   -1.61829072251315   -1.66801166966834
H          -1.14749908960580   -2.85602708656610   -0.82290787994448
H          -1.28374125392807   -1.21574340145451    0.22152676625478
