    19
        -40.91832170
S           0.74698147773749    1.00712526938402   -0.60501721440664
O          -0.61414248153815    1.53933514817102   -0.12645516584805
O           1.33509910246752    1.96783131364659   -1.47903610331337
O           1.50916667962795    0.54588661565869    0.51749015854567
O           0.35677493901080   -0.26365510581479   -1.43610809470603
H          -0.12819256921016    0.10472059570287   -2.21549301514055
O          -1.13422742286743   -1.93072402670553    1.82349103549821
H          -1.15520087741181   -2.52258485578633    2.57736197773194
H          -0.29381433933866   -2.11920792680946    1.34293794229769
O           1.19818543544995   -2.14403730576888    0.54690674223156
H           1.03997458263425   -2.29424575889856   -0.38843110334202
H           1.47700145102888   -1.21300536551160    0.60947066586882
O          -0.72426082804991    1.40949482774309   -3.10448567490679
H           0.05724745784808    1.92536869000864   -2.84441927664625
H          -1.47555044567869    1.81798450656223   -2.66583135382852
O          -0.69593273312729    0.64229351537870    2.20807861561116
H           0.26632120324519    0.61054562584549    2.27499696241165
H          -0.77266502930729    1.21725728032691    0.85075416218197
H          -0.99276559249725   -0.30038306312011    2.11378873976761
