    19
        -40.91984729
S          -0.95109805212699    0.52486393216915   -0.07908937253384
O          -0.05474523850732    1.06090972989339    0.96506535988528
O          -0.20812702227516    0.38061264314286   -1.33594738044347
O          -1.57265554498174   -0.70572123224398    0.33832837084774
O          -2.06446505528544    1.58144832491920   -0.30636293892579
H          -1.61924630842624    2.30533559654420   -0.79829061012939
O           1.75488764588612   -1.25218537785696   -0.80464828468299
H           0.98182708588392   -0.70600709703807   -1.09788720591154
H           2.51373626599990   -0.92427016816859   -1.29195405688716
O          -0.50925325953751    2.91536254889374   -1.95778965014798
H          -0.87597514366049    3.02081384842585   -2.83873252365613
H          -0.16365412967897    2.00182334764246   -1.90435319887998
O          -0.48977769659651   -2.30793144202181    2.08592660826821
H          -0.45022794404076   -3.16181328675863    1.64925395066638
H          -1.05675710559760   -1.73546614918374    1.51244698240715
O           1.45334196568160   -0.72221960542882    1.67887371251621
H           1.73207217142853   -1.01130800453336    0.74474255671361
H           0.81302292931034    0.15602365890569    1.45102534306073
H           0.76709442652649   -1.42027127730183    1.98939235783470
