    19
        -40.92453762
S           0.02434399950363    1.05867409713092   -1.09617683063998
O          -0.30827037510077    1.74030726784314    0.14954269959774
O           1.35625540404254    0.46823935675407   -1.02384841347115
O          -0.98599342017316    0.10016506709679   -1.49225378865056
O           0.06559077553407    2.15879892423569   -2.22881438549728
H           0.70870856394674    2.79535193670952   -1.93041703550780
O           1.56014513120307    0.28903099627797    1.55330130090061
H           1.06224349547009    1.08369793653367    1.77843391315269
H           1.67295223842895    0.35579151075898    0.57088092500152
O           0.30961648698845   -2.08235904302965   -0.94098821968849
H           1.19687282037764   -1.75373429352252   -1.12860379627679
H          -0.27950313594138   -1.37603567425558   -1.30366575345448
O          -0.13017911195407   -1.57802687692063    1.48908063080274
H           0.62528651185473   -0.87422555670519    1.65307741287949
H           0.05521723683435   -1.93650977311046    0.52326118123695
O          -2.03533499850797    0.00835568411819    1.03330236791871
H          -1.47980390964416    0.79535404330047    0.80644235315729
H          -2.41778083703452   -0.25011357394713    0.18666242832284
H          -1.00036686583513   -1.00276202923648    1.40078303022918
