    19
        -40.91893392
S           0.17708680174680    1.12254824926185   -1.31185834683894
O           1.11072439774127    0.51344612472826   -2.22507792130318
O          -1.06486617772415    0.34437799175616   -1.18819085750198
O           0.71755012801361    1.45063826893740   -0.00718164661097
O          -0.25257483229430    2.50407888538487   -1.96495376605316
H          -0.21465588002731    2.31975129043602   -2.89860675338985
O           1.92074063611902   -1.04004776112709   -0.25112071851318
H           1.71450593031968   -0.60259432705764   -1.10211372996615
H           2.07909028101101   -0.31042726571325    0.35560811433202
O          -0.45587345508994    1.05026092085590    2.26763006684903
H           0.07896571408486    1.27441351481555    1.46266180342347
H          -0.91843335753509    1.85270557401805    2.51613741866248
O           0.00726100633808   -2.59501442945679    0.64113685219941
H          -0.20469252110136   -3.18993665083180   -0.08075344316259
H           0.79708952626949   -2.06846552122342    0.34260245654490
O          -1.67797036522015   -0.73279202874675    0.93674717275107
H          -1.05216000657026   -1.55754287045653    0.90060302891141
H          -1.26612299602656   -0.07992206821761    1.61099459700239
H          -1.49566481004549   -0.25547789738232   -0.00426432733925
