    19
        -40.92174067
S          -0.46203010447274    0.39828908894041   -0.65558255574878
O          -0.62147879949968    1.48721805446854    0.28507985696608
O           1.01133146976666    0.10706521183277   -0.87331560778412
O          -1.16679281249219   -0.79989291783667   -0.30544632597429
O          -0.94327917119638    0.87244992872416   -2.04404106515537
H          -0.64925103582051    1.81681509466295   -2.12350565899023
O           0.09496151499082   -3.12298323917767    0.20090054109166
H          -0.50692911971689   -2.37887078338077    0.00937714766531
H           0.18622536892452   -3.61586001318558   -0.61621358368862
O          -0.23556003310856    3.32620799166784   -1.57956659904006
H          -0.92680099307982    3.99287534021857   -1.60267038853894
H          -0.24298035653888    2.94118867622301   -0.68363485171470
O          -0.16554747514842   -0.14572858191136    2.39506965483156
H          -0.90018340994680   -0.75729316626183    2.29786633415632
H          -0.36244836311014    0.60070535577833    1.80537733171289
O           1.81176839342388   -1.26435666113109    1.01941636117625
H           1.36864158161592   -2.11745303825829    0.80412520810706
H           1.44983725984024   -0.47544557549984   -0.06638858190071
H           1.26051608557152   -0.86493077586801    1.73315281283378
