    19
        -40.92453853
S           1.17194986490832   -0.43690123796123    0.87086921345281
O           0.22143536294247    0.26204088632639    1.72894281695819
O           0.57615639262879   -1.64718559869150    0.31659131130171
O           1.73446802096005    0.42226186466013   -0.14976143545920
O           2.37568615524821   -0.88939552719852    1.78798286008220
H           1.98393732974853   -1.45495186074309    2.44715950512194
O          -0.05807082920911    2.30115102997906   -0.10827227311651
H           0.75821617464910    1.74856001276186   -0.18453019646752
H          -0.28656176150596    2.23756596354027    0.82670477175210
O          -1.97137337469050   -0.70299956516663    0.74037064404170
H          -1.63913443386382   -1.58199607001346    0.52337687833408
H          -1.23852027604563   -0.30291035891486    1.27432744344356
O          -1.58172995837153    0.69781284034856   -1.31708055240699
H          -1.90205532288645    0.12571118843209   -0.50273976312123
H          -1.02999151822559    1.47578174470813   -0.88609599946810
O           0.28086044045419   -0.79702871080314   -2.12286212456817
H           0.40103431175315   -1.29851187347452   -1.27796517844637
H          -0.87049380482090    0.09250942726071   -1.79040548399205
H           1.07418723631197   -0.25151413503478   -2.17661246741902
