    19
        -40.92079119
S          -0.16827743335865    1.45964413914819   -0.21991355284794
O           0.79014761504231    0.57585241709323   -0.86896124610396
O          -1.41228665523275    0.75167869863356    0.08892054537232
O           0.35843423870540    2.17224845740658    0.91533859548627
O          -0.54259416506060    2.53666754350363   -1.31760873611287
H          -1.06576827387870    3.16955021311683   -0.83559401084015
O           1.05812277159113   -1.49571791401372    0.78733110977966
H           1.25922323609643   -0.77336145564200    0.15837980907745
H          -0.28503336588599   -1.78382514930093    0.30404643685153
O          -1.22264689204298   -1.69939544352385   -0.19710342507299
H          -0.97616971524978   -1.69550733166316   -1.18158420669961
H          -1.44785921288528   -0.68373506670236   -0.02544173686645
O          -0.24043704254480   -1.19521530049131   -2.50657005697078
H           0.47755187371869   -1.70461382164665   -2.88781284842414
H           0.17178901273569   -0.41640332912578   -2.06347962529279
O           0.61148992458017    0.24980379557729    2.71129443864686
H           1.23661941699146    0.54777313800873    3.37488921027404
H           0.46021279253457    1.01527488943865    2.11543701680860
H           0.93748188381126   -1.03071848036697    1.64843227347607
