    19
        -40.91965226
S          -0.78144642238496   -0.93843526874053    0.93663467167499
O          -0.16829994569102    0.33878335062053    1.31152311364387
O          -1.00144569416700   -0.96992616447157   -0.51816395599978
O          -0.08804669962952   -2.08008321745657    1.44461010841708
O          -2.23574169970175   -0.93449408867076    1.55830075171141
H          -2.77692483192691   -0.47348224703792    0.92318630938301
O           1.74559479910001   -2.04666415495031   -0.47296992615552
H           1.18050149917429   -2.20598256371655    0.30918221553714
H           1.23465927964805   -2.35249848264659   -1.22559004490201
O          -1.13068631300538    2.40745324130040    0.07843215217252
H          -0.84244825266098    1.68171428247088    0.68883602836371
H          -0.76382928599355    3.22125066480385    0.42899696937684
O           1.97821846300372    0.56320903083898   -0.23089595743552
H           1.40564065402968    0.57081734222371    0.56510950778539
H           2.16052633601987   -0.39667801976272   -0.37951520227929
O           0.02214440463542    0.95765197224091   -1.69725917729321
H           0.97946764219491    0.86447963855822   -1.18916255508805
H          -0.45950864991756    0.09797198823835   -1.33259133055824
H          -0.45837527271917    1.69491269616156   -1.19866367834572
