    19
        -40.91907728
S           0.86629484827746   -0.67813452160027   -1.25343674162587
O           1.16833798658038    0.67760638368122   -0.85532046295601
O           0.27129912845684   -1.43405601236570   -0.13091847330169
O           0.06484552468382   -0.78357049051738   -2.45012458228021
O           2.24696143986352   -1.39319624070435   -1.55060643222860
H           2.03271415554080   -2.11664401751787   -2.13391559384694
O          -0.84089575227546    1.06280008142120    2.38588133023107
H          -1.04340111266084    0.77316062141395    3.27728598372117
H           0.11686857347496    0.82566830456502    2.21473647202855
O          -1.81897966835283   -0.22851829658592    0.44647668619068
H          -1.52083747267285    0.33190014386441    1.27032973049448
H          -0.99385687082457   -0.85080513021642    0.23245852240715
O           1.51222302072708    0.16747795790896    1.71069534853383
H           1.30605593601325   -0.75115174009951    1.49435099232577
H           1.60402948489805    0.58152272582264    0.82976643266482
O          -1.43158949376075    1.19675140716641   -1.60255305276668
H          -1.82825511751734    0.41461656062169   -0.37110308228148
H          -0.66004830604730    1.72121576570569   -1.35147226176107
H          -1.05176628438676    0.48335648745684   -2.16253082554636
