    19
        -40.90719747
S           1.44804518478690    1.00297668112756    0.33493133850871
O           1.22523440961940    1.53959456422717   -0.97467320354911
O           0.10725055364500    0.63056007671239    0.96571338344386
O           2.38650340724179   -0.06000033299856    0.47283645360300
O           1.91901180750712    2.18168377649873    1.26516911918087
H           1.39960797908445    2.95077191959701    1.03725780328471
O          -1.42020412467197    1.42747466030418   -1.63278275602109
H          -0.47636600652816    1.50218310430127   -1.40307066088934
H          -1.43897195665800    1.11908661877818   -2.54111034673506
O          -2.87163056764767   -0.33638560604155   -0.10649836457447
H          -2.47827940976047    0.35301168442044   -0.67953877140171
H          -2.93667128269204    0.05959763393174    0.76438835901853
O           1.40173034105843   -2.54172049408170    1.04994184628044
H           2.01197350560956   -3.18332078371360    0.68106173083765
H           1.84336645337836   -1.67629743963609    0.96353379487578
O          -0.46156133419451   -1.34711484477904   -0.40721469401413
H          -0.19716077613415   -0.20534791537921    0.38483135592762
H          -0.02389043210646   -2.04379637367972    0.12595196515108
H          -1.43798775154026   -1.37295691955794   -0.30072834297204
