    19
        -40.91641683
S           0.45816541101401    0.95047671163210   -0.48910568477139
O          -0.68886741125997    1.80590940342641   -0.50970851797031
O           1.05515916672742    0.87981874147331    0.90310617411414
O           0.21226091938872   -0.38679312383082   -0.98605770072231
O           1.61176484777999    1.58574958273402   -1.32634715198168
H           1.25658674219569    1.67456856644664   -2.23545820171678
O          -1.94528168785627   -0.41950633307876    0.68715495398521
H          -1.98788842503112    0.54072602907920    0.62712146968878
H          -1.37478529701475   -0.68511529926732   -0.04775772760433
O          -0.58995170492866   -1.76164407372748    2.61211042087523
H          -1.21422881106242   -1.33713862222824    1.98806328282275
H          -0.59940919144892   -1.23166301656938    3.41101040490321
O          -0.19687816982585    1.34929145354787   -3.22397272971024
H          -0.82956555869497    1.79910851885240   -2.65144495715627
H          -0.31137940939840    0.40655849330769   -3.06500680812633
O           1.59518642617682   -1.53314399424904    1.16397163001699
H           0.85256383126572   -1.77118148616638    1.78127236583793
H           1.29014642884755   -1.76422195734813    0.27741301169272
H           1.40640189313016   -0.10179957404115    1.08363578581540
