    19
        -40.91638446
S           1.20121069242254    1.09715572307645    0.42055617162889
O           0.62238136663911    1.04661720535820   -0.89963872278193
O           0.79405801744977    2.20721038895309    1.24210907930406
O           1.02968264548576   -0.19447548488150    1.11954181524425
O           2.76917806566907    1.24772197587783    0.20372053830534
H           3.08584802064400    1.61816091086550    1.02247278434008
O           0.78234029820535   -0.97690265028142   -2.48426249818416
H           0.11293464347336   -0.83889333989924   -3.15833588288305
H           0.85977776723181   -0.11427288939321   -1.99952092839919
O          -1.48979053261789    0.95732565707784    1.68325597406688
H          -1.10977079294847    0.36850630322900    2.34144439946756
H          -0.76873769940272    1.58682628944565    1.48092117975991
O          -2.33547442700793   -0.69434808175231   -0.18924549277056
H          -2.06969726370340    0.04479773027386    0.41629032977896
H          -3.11333344387295   -1.09685101039252    0.20208815425960
O          -0.08332047654736   -1.88350831204675   -0.27867828657321
H           0.28805799470646   -1.67514414205629   -1.21663710787357
H           0.45784609033658   -1.20095845701414    0.36644242111636
H          -1.03319096618696   -1.49896782648124   -0.27252390778332
