    19
        -40.91907726
S           0.43272515492093    1.60842105246938    0.05773234743944
O          -0.81573487125229    1.08978744447187   -0.54096820629363
O           0.20123098353093    2.16912487534434    1.36826174937959
O           1.47671365375987    0.61071325508422    0.01187407326539
O           0.88385350256227    2.79597030382328   -0.88672261869825
H           0.39999226894152    3.55816098525865   -0.57938618658871
O          -1.44692494891021   -0.87200938428669    0.84082769403766
H          -1.09910757017968   -1.66119487962565    0.25970490328715
H          -1.30704477994332   -0.01539360302347    0.24051999100307
O           0.57193627663583   -0.66446360558091   -2.11464248554256
H           1.19163311628914   -0.29698935297142   -1.45412983997440
H          -0.15145107280588   -0.02395184671781   -2.10736408373833
O          -0.47354021325026   -2.60358162182872   -0.72123023346335
H          -1.07167699220571   -3.10491108570838   -1.27839786653286
H           0.01197040989309   -1.96363172246910   -1.31925988729568
O           0.42080724234653   -0.22629020884355    2.41362107135692
H          -0.75195383335624   -0.72505470273290    1.60106111173891
H           1.21095167282223   -0.42111152362816    1.89287629720939
H           0.31561999020496    0.74640562095208    2.31562217941356
