    19
        -40.92044476
S          -0.74075863249981   -0.58404876342440   -1.28789842572623
O           0.68245305949790   -0.85739071263482   -1.47479229072229
O          -1.33451794188243   -1.48764115455763   -0.32208178912070
O          -0.97643520932979    0.81749189720800   -0.98691765207730
O          -1.45798664199232   -0.86208572926640   -2.67115548372019
H          -1.54823663211003   -1.81007907730232   -2.69164508261671
O           1.07737779602647    0.58925206846448    1.77288919747513
H           1.01395264588650   -0.45342603646839    1.60415580696176
H           0.10093047112705    0.90211859744243    1.83165971782448
O           0.81614895461156   -1.80371521956463    1.07367069900607
H           1.35682044875180   -1.85752022808766    0.27430636492566
H          -0.10787946739795   -1.80494067945058    0.71296377580098
O          -1.35065480371001    1.27345014162854    1.53023578183812
H          -1.66985172035853    2.17357929184007    1.61768659083013
H          -1.36820150843739    1.05587625234897    0.56175109730303
O           1.67021171837248    1.34047106204238   -0.55687497760866
H           0.94716708273939    1.91432062208866   -0.83580279482884
H           1.42961813258142    0.97182718447377    0.85973744560007
H           1.45984224811309    0.48246049317572   -1.01188799114729
