    19
        -40.91893419
S           0.30991586134196    1.67581050952085   -0.33991432538747
O          -0.65528663023537    0.92863293661337   -1.16064610234677
O          -0.33474454734431    2.42106631862693    0.71141538243725
O           1.39976709866718    0.82172894821590    0.08947961029251
O           0.95636253218617    2.74635586302365   -1.31793237925610
H           0.34766177999116    3.47722023507436   -1.26767246140066
O           1.83567710045712   -1.60487504829185   -0.70544328932959
H           1.78488817754073   -0.68111608083077   -0.34670643336092
H           2.46428170913979   -1.57856365887969   -1.42917161826688
O          -1.77712272850484   -1.70204879867237    1.05056663614741
H          -1.25119291441321   -1.02415118883460    1.55429986259387
H          -2.68309194257079   -1.38697584007020    1.04684071346714
O          -0.35916615063233    0.20997752834417    2.15185630868762
H           0.58260780549208    0.04359269912292    2.04870870757795
H          -0.49141660655246    1.09322236898517    1.75127729448895
O          -0.65127851626355   -1.53091868649295   -1.20705979779851
H           0.34201317705149   -1.72727313417548   -1.04676752626254
H          -1.14018550395492   -1.71909707288360   -0.31321755499673
H          -0.67968971153994   -0.46258790833375   -1.26991302731071
