    19
        -40.91792407
S          -0.73681415566190   -1.38501868610807    0.63001770238243
O          -0.49291972841134   -1.64103985568718   -0.77973870862909
O           0.45467662466591   -0.90321318203313    1.31298181072189
O          -1.88485938205545   -0.51968361764210    0.83752110465445
O          -1.09130748188987   -2.77485766010136    1.30161193858237
H          -1.95702183392685   -2.95781912420587    0.95008304460321
O           2.31401847689017    0.07024448863294   -0.17329586666374
H           1.64673154004199   -0.45000280183588    0.35365545921347
H           3.07316348002322    0.19409314920203    0.39958638567532
O           0.64546397596464    1.89969521461457   -0.71228323416176
H           0.05147055978140    1.39365658065116   -1.41068554339780
H           1.42518060281077    1.25158857336901   -0.53951049300480
O          -0.70003229099763    0.44238845711710   -2.25062704844963
H          -0.25568978170772    0.20312594333257   -3.06727369319326
H          -0.71212773506410   -0.39099978406148   -1.69459023938167
O          -0.60869565615021    1.61828721149399    1.43978751379735
H           0.01566262441917    1.14636187829537    2.00390715276450
H           0.08514819490953    1.89275333826830    0.18781024380678
H          -1.27204805367711    0.91043988661258    1.21104246062763
