    19
        -40.91597565
S           1.33179306951430   -1.24988697816417    0.19412287730738
O           0.32861866992358   -1.33215015753591   -0.88526151171649
O           2.40793368758477   -0.34867232553071   -0.17882835551208
O           0.73567311010596   -0.96804534004281    1.47058623672442
O           1.96267457021427   -2.69627273401502    0.28000886395137
H           2.42623226208015   -2.77012326965914   -0.54842593513960
O          -2.58965735388111    0.96877547763357   -0.13388961361332
H          -2.31219494512808    0.43130548935747    0.66088958363256
H          -3.31181157178043    0.48402830670272   -0.53866107025154
O          -1.81175676564570   -0.53056282818740    1.84999386080796
H          -1.81229653898725   -0.14108878320335    2.72653691305030
H          -0.87239899918424   -0.77983488455421    1.67815464613082
O           1.42481821424653    2.02458792500389   -0.39569192772719
H           2.05100520062085    2.54759551775746   -0.90096264105060
H           1.87829486892207    1.15905754940552   -0.20523164806691
O          -0.50768268536428    0.87345384021296   -1.57116330718387
H           0.20757215477698    1.46967349669119   -1.14140288234706
H          -0.16014279534441   -0.12162909252177   -1.34515863653596
H          -1.37667416266992    0.97978881065115   -1.01561544245897
