    19
        -40.92044774
S           1.31859663471816   -0.75009154692337   -0.49817480460472
O           0.44285032333100   -1.21582828145362   -1.55585805240646
O           1.59259569430425    0.67994073043902   -0.61640063735132
O           0.84508794647521   -1.08881552189630    0.83315314551015
O           2.69350581862069   -1.51182695504767   -0.68495049159751
H           2.78238225361642   -1.58333153532948   -1.63053940864986
O          -1.78203674490892    1.11628830383503    0.47875767618434
H          -1.91729730654494    0.12097022950928    0.69293815710620
H          -1.49365509747536    1.13346467089958   -0.53907856068952
O          -0.81603440319677    1.02411909207098   -1.83264807738924
H           0.00656474368455    1.52410467491177   -1.74495803531057
H          -0.49734146844734    0.08608216866770   -1.87705085432710
O          -1.72121380350774   -1.37066405790880    0.96199772523279
H          -0.73517822846482   -1.41842917549085    0.85656332772522
H          -1.92791661013197   -1.76215412849297    1.81280835756042
O           0.46391166090606    1.52351659601356    1.54309536584234
H           1.00834455159075    1.36277995724159    0.72740409100413
H          -0.90713080155650    1.38744760200898    0.99395072372836
H           0.64396480701922    0.74242717694409    2.07899033241381
