    19
        -40.92161576
S           0.32173249580338   -0.57684207000868   -0.83773407120545
O           0.69417219189970   -0.84649184316023    0.62019693609930
O          -1.02786120429702   -1.03958225421163   -1.06458670658973
O           0.55815755018981    0.79222390565566   -1.18299776729027
O           1.30905670205515   -1.47645683983906   -1.60995228864796
H           1.04266887941429   -2.39773974078444   -1.36199046892431
O           0.02227763987574   -3.47006485401867   -0.54907680760727
H           0.20986898291896   -3.41620246693144    0.39232638844668
H          -0.72402628148626   -2.87238510069992   -0.71686468078330
O           1.34428496258011    2.63835822534828    0.62164471697110
H           1.41241622473916    3.51607927229041    0.24281464590745
H           1.19548402294840    2.02186123638234   -0.11859112677228
O          -2.05772194457955    1.20203312097104    0.04049229354581
H          -1.71613891782910    1.84109959891075   -0.59002435401119
H          -1.93913781869783    0.33508455674246   -0.38266077886161
O          -0.25391308975774    0.98438912069579    1.98971459895675
H          -1.06607588135381    1.14436472290264    1.45327621519020
H           0.31288282338244   -0.09028726717954    1.29277176620903
H           0.36187267204299    1.71055864708658    1.76124147930511
