    19
        -40.91464802
S           1.40917075971783   -0.05686337223291    0.47998297559942
O           1.41325872911414   -0.80140181136056    1.80664530310280
O           0.97093789454040   -0.93932083376855   -0.56190467969111
O           0.73495918479072    1.20022814695059    0.57615997330694
O           2.92791902910870    0.25720383517437    0.25934945255209
H           3.36176635770447   -0.55140527077027   -0.00605207568557
O          -0.27981108525674    2.31370804474992   -1.71880906594255
H          -0.74419319214075    3.12257526872269   -1.49521937209191
H           0.17334508144033    2.02215763996202   -0.91103134116241
O          -1.82360036727751    0.11392140054017    0.81861943595591
H          -1.10330769456753    0.74475244870371    0.93981738122205
H          -1.89562311546854   -0.00814332507017   -0.16082555445725
O          -1.40833032475580   -0.19301026167305   -1.78258658446165
H          -0.56408309198747   -0.63155008995497   -1.60711999633873
H          -1.16452103037973    0.71624551237314   -2.02778681888765
O          -0.68913332857064   -2.08437093725721    1.53807496671995
H           0.54323030115418   -1.40790140863419    1.80656129886159
H          -1.28690863799278   -1.29306839615772    1.35677232808090
H          -0.57507545916655   -2.52375658029266    0.68935237331273
