    19
        -40.92071437
S           0.28076233461947   -1.15252443486645    0.88783963039399
O          -0.56690563929486    0.00401127448266    1.23967708693114
O          -0.50634814205063   -2.34631402130723    0.68056337091505
O           1.15443942900246   -0.82376566615160   -0.21469425036210
O           1.18844072668946   -1.41724788742298    2.15368560563067
H           0.66598316537822   -2.00653546886297    2.69032397043470
O          -1.39789664075757    0.70392522547648   -1.03071464861794
H          -0.44216095438159    1.17278476943175   -1.29925937686580
H          -1.23308153732709    0.48268414678962   -0.04207080755487
O           0.72360886161764    2.35534648532309    1.18477528391138
H           0.22753310866775    3.00351892253302    1.68681954685776
H           0.30839555583419    1.48760526506903    1.36023610832666
O           0.91203515145873    1.53691779534637   -1.34436925295141
H           1.26736232546604    0.66747100862450   -1.04778800702191
H           1.00904762064958    2.10701500398294   -0.55279196488880
O          -1.05799326618675   -1.69484244576262   -1.79361549120375
H          -0.18143275876078   -1.75424027902212   -2.18494833678040
H          -0.96663013157027   -2.09997201695688   -0.89874928256523
H          -1.38515918905048   -0.22583766672558   -1.47491917460393
