    19
        -40.92453834
S          -1.07763632130555    0.37601545699465    1.00984838217681
O           0.16617746039535    0.17650876626084    1.74553874974924
O          -0.95550932162913    1.49233824835777    0.07929782729611
O          -1.54194273667362   -0.83517188937151    0.36655660699887
O          -2.18205458876973    0.77223875961230    2.06722531076624
H          -1.86557645437968    1.57879680482967    2.46353602900799
O           1.46119598371036   -0.64851521570657   -1.47226088828987
H           0.53683831491407   -0.37605991105084   -1.88161208529052
H           1.23571638375122   -1.38415474824330   -0.76262307179571
O           0.68823529477648   -2.16589994623138    0.38600544144666
H           1.04814252169263   -1.79765887633652    1.20166097146321
H          -0.25150436160740   -1.85864606884731    0.38906802740856
O          -0.85897455348518    0.09860758045248   -2.11381661095614
H          -1.46179856936650   -0.60822378072125   -1.85532118618647
H          -0.96776984527342    0.77051614572172   -1.39522583707006
O           1.78947895094068    1.31261416518886    0.07503941831431
H           1.74300340631125    0.18195427786039   -0.90327846162612
H           1.19013362188420    1.99819258317034   -0.24252244868941
H           1.30384480409550    0.91654765806246    0.84288381528953
