    19
        -40.92079113
S          -0.81978398744208   -0.51346312739592    1.12699908031498
O          -1.27204099085242    0.30382262196026    0.00965329672137
O           0.26874719791017   -1.40467864581265    0.72109907143171
O          -0.50741287278383    0.23350042241962    2.31800964850123
O          -2.04565085504570   -1.45379072135278    1.47084723381978
H          -1.77472183594635   -1.88300363057586    2.27637256482310
O           1.72210556914261    1.47310200818841    1.62761951661867
H           1.83629665152773    2.22226443704126    2.21552747026726
H           0.94649248958154    0.97567840506117    1.96664685366026
O           1.17749909504897   -0.85908991910273   -1.51567595122126
H           0.90155876201695   -1.20042237799635   -0.55721136141893
H           0.31617903622950   -0.98446560900609   -2.03782908701290
O          -1.24891115160399   -0.88111315901576   -2.32992176001596
H          -1.45597684163417   -0.49564082999224   -1.44586872144109
H          -1.58516160633149   -0.26406004048162   -2.98301719033510
O           0.91703527474136    1.53743464437585   -0.88154721407620
H          -0.00476338498682    1.35861511381032   -0.60570635589615
H           1.40117147576103    1.64256892003087   -0.02900939323643
H           1.22733795463423    0.19274149784880   -1.34698770148006
