    19
        -40.92453847
S          -0.59972143332957    0.57644693332106   -1.27681465507356
O          -1.07563512052157   -0.79741074880259   -1.16350959534191
O          -1.07862998220917    1.38411735454352   -0.16031025956120
O           0.83641946073978    0.65469697315249   -1.44259912598202
O          -1.23480271333167    1.18140046626846   -2.59040001221865
H          -2.17660784659573    1.11326498411865   -2.46300999783709
O           1.18709252854582   -1.88828066620299   -0.49301704450114
H           0.28330105178184   -1.65082467089015   -0.81957385375627
H           1.77163627638618   -1.33212092328060   -1.02094184761557
O          -1.51294417671187   -0.52471747592251    1.53835918385239
H          -1.47397262098586    0.30200973838857    0.99317087712570
H          -1.79110618091948   -1.19890299782285    0.90738243057037
O           0.98157571138128   -0.79501696340848    1.76851492125222
H           1.16347641465486   -1.34614237764290    0.89681506980181
H          -0.06084225455784   -0.74415234505378    1.82501143699520
O           1.45372898344164    1.53195428878556    0.92263081362499
H           0.65150304513972    2.04377103437584    1.08055721543779
H           1.27658774187540    0.18202868615685    1.53646059644894
H           1.39894113516581    1.30787869995797   -0.03872615324179
