    19
        -40.92343667
S          -0.14046726485097   -1.68094532913681    0.01009651623337
O          -1.21793398030237   -0.76900747215394    0.36018113520376
O           0.32164371569549   -1.49877674944921   -1.34943994621666
O           0.95920057922128   -1.61485749844289    0.97388048183934
O          -0.73819242236915   -3.13426944647644    0.12117509099851
H           0.00696054979881   -3.68449618622317   -0.09898522992745
O          -0.68317527118914    1.45343507874023    1.73752455561228
H          -1.03054971133204    0.57746462407280    1.46904844367118
H          -1.04273899271498    2.07349573077944    1.09356150855878
O          -1.37282326589180    1.43449110783339   -1.11235470098261
H          -1.93018742523372    1.35997876434750   -1.88815561170145
H          -1.42774440917971    0.56886938689518   -0.65031320340293
O           1.25500978114444    0.94492108682415   -1.37877490061636
H           0.37585693556017    1.37610528848548   -1.42123187998440
H           1.05611956504258   -0.00775589711775   -1.54268521050093
O           1.67395977196259    0.76165922037285    1.07084745326030
H           1.62243060261074    0.93981176082647    0.01794159045386
H           0.81378911455849    1.16772949882640    1.45987706552370
H           1.49884213744362   -0.26785296898255    1.12780685201481
