    19
        -40.91923777
S           0.10112960440733   -0.97119735567781   -0.04221199393400
O           0.59744164792612   -1.84288544731707    0.96821605682165
O           1.08934285354520   -0.23712649342637   -0.79499858040484
O          -0.82737844546551   -1.70200058665450   -1.00989833839454
O          -0.86193049987439    0.06691237104991    0.62458619531094
H          -0.50180364770666    0.22343807258826    1.57603084534542
O          -2.04745652663229    1.62235136930013   -1.33683619818456
H          -3.00033340166715    1.58059806969008   -1.23562083181348
H          -1.66251079135578    1.22134313180980   -0.54193250282216
O           0.31082693392687    0.21556557009962    2.84829732937217
H           1.18929605128411    0.46223082481409    2.47006694098046
H           0.36234732361450   -0.73326569900596    3.00894024682720
O           2.51894379481835    0.43895941253296    1.38526871851944
H           3.07631570044514   -0.33031578861320    1.52336528623995
H           2.12263882824102    0.32186205457692    0.50327574454273
O          -0.65175277173475   -0.04635173359301   -2.90139921105451
H          -1.21469086724396    0.67685978748859   -2.54893197577084
H           0.25043083698524    0.16774073204839   -2.62638253647254
H          -0.85085662568218   -1.13471829476699   -1.86983519615359
