    19
        -40.91923792
S           0.84044498206725    0.35227124600005    0.34974200446965
O          -0.31390170896971    1.16544805793731    0.64708338043465
O           1.89007020230870    0.98716958235046   -0.37300751817210
O           1.35135107443538   -0.28646906066095    1.63958715835981
O           0.35348823659683   -0.89047572488740   -0.46786012554406
H           0.48002712913009   -0.64947714036605   -1.46041793959652
O          -0.43670032604943    2.22045273557970   -1.82836540717534
H          -0.56876751023886    1.92915960065640   -0.90840271655476
H           0.19311139252799    2.94359425914833   -1.78345705700518
O           0.77388901976278    0.04791612403650   -2.76701262718564
H           0.22328578630776    0.85732289491428   -2.63554442828949
H           1.68112407775157    0.33074407457996   -2.60707207454683
O          -1.50981236075412   -2.30284924822367    1.01746056474596
H          -0.94124301509161   -1.88240547898308    0.35347113277886
H          -1.22633095896910   -3.21644659705721    1.08787808552012
O          -0.87535091052191   -0.41628936388415    2.81197072181934
H          -1.16547837490255    0.37796576683773    2.34250695880681
H          -1.27858175818823   -1.17083288832250    2.33010393342005
H           0.52937503268456   -0.39679884075505    2.25133593510477
