    19
        -40.91923788
S           0.94516664361791   -0.23656297547085    0.06418991592273
O           0.57630169557500    0.94290629902988    0.80913055878862
O           1.95700507967765   -0.06816761878362   -0.92331780811077
O           1.29195752291010   -1.35942313978973    1.03969448886944
O          -0.34429177223019   -0.78608769959027   -0.63252561058319
H          -0.34669498681634   -0.39374600224699   -1.58402018491568
O          -0.03276652279956    0.36765656968547   -2.84951531616375
H           0.02987182057788    1.27707087761350   -2.46923564255422
H           0.87896272431990    0.08995453495230   -2.99198361247836
O          -2.25570179179310   -1.37007416106382    1.28529385907988
H          -1.72918873180663   -1.14509982704005    0.50229654199484
H          -2.53946263904070   -2.27991715462913    1.17751849471198
O           0.48595772715754    2.51746823963467   -1.37455787041801
H           0.43771196107944    2.10598610538228   -0.49310017147701
H           1.40409454119419    2.77215741070696   -1.49184633040780
O          -0.24667678752676   -0.62853656116206    2.89650886047167
H          -1.11044356882167   -0.91043377143977    2.52427069055516
H           0.73143578531816   -1.18761964036134    1.88723012571061
H          -0.13323870050035    0.29246852465121    2.62396902061078
