    19
        -40.92267752
S          -0.29897732147610   -0.17058766026214   -1.00830383360197
O           1.05740396740294    0.22634981390776   -0.55488871049388
O          -0.53826395316302   -1.56775376839866   -0.67819836224646
O          -1.29803341065765    0.71807565749355   -0.45981341021103
O          -0.30285844051101   -0.00902429712519   -2.55393431424497
H           0.37022507176929   -0.66336282790125   -2.84560411708966
O           1.51889902787211   -1.88919245894536   -2.38871040960405
H           2.12802861995702   -1.36145413985675   -1.86207961624499
H           0.86043949300225   -2.22816847092013   -1.76144625680979
O          -0.75779064201644    2.52414543447594    1.34367857317377
H          -1.11281725102078    1.93892350755234    0.62968115619108
H          -0.44385457592493    3.31975439717894    0.90956407662085
O           0.86143244191006    0.63546897031759    1.85768422195532
H           0.29678583713284    1.49023944567538    1.82239642854718
H           1.08277443850821    0.46303455721528    0.80783794576456
O          -0.95816834731934   -1.13670295142771    1.87249343405963
H           0.18330205995629   -0.11780127316855    2.04659832120414
H          -1.81441501184911   -0.69995102474791    1.87057044549548
H          -0.83411200373314   -1.47199289109831    0.95247440757114
