    19
        -40.91923790
S           0.93889438816434    0.24764168260466   -0.10507876201228
O           1.53007993864386    1.53003211293037    0.07697189427983
O           0.23744302181082    0.03778660897719   -1.34844777087853
O           1.95569615568043   -0.87442191797421    0.09424341673724
O          -0.07102532224417   -0.00572040240725    1.06359059470806
H          -0.45136252834361    0.91568831007228    1.31989475519724
O          -1.05423366935769   -2.58983319636666    0.89464432396202
H          -0.90458743123177   -3.03663690281775    1.73010012428482
H          -0.86630604373591   -1.64956843719230    1.04110430817794
O          -0.79217508643195    2.38471544182097    1.39320836728896
H          -1.07481791534904    2.52310995142645    0.45696629251069
H           0.09354848051427    2.76049091019964    1.44787172816745
O          -1.01958901812076    2.41827845799612   -1.25509681612598
H          -0.36878176353403    3.01867965260404   -1.62603996778731
H          -0.68739086326762    1.52201491539987   -1.44210964468968
O           0.68004905803659   -2.65794440193731   -1.14715834371193
H           1.56994531645439   -1.70079541090350   -0.38564268472929
H          -0.01570788283214   -2.86285510198027   -0.48525148548430
H           0.30032114514027   -1.98066227263291   -1.72377034996131
