    19
        -40.91923772
S           0.88952505125890   -0.33962751314347    0.22294197363757
O           1.64116733398667   -1.33768321757519   -0.45973106599876
O          -0.16235984834766   -0.81247615738731    1.09022077342162
O           1.79482344522491    0.61134319224224    1.00308429007273
O           0.24331684637769    0.61103100501741   -0.83955989594113
H           0.05545510366827    0.03075667131602   -1.66826791081857
O          -0.08912610144777   -1.10729689696100   -2.65094650403866
H          -0.62047631159068   -1.72448618592346   -2.09240645210607
H           0.80812647996615   -1.45863258214053   -2.63235258952364
O          -1.08527218257763   -2.60668171056002   -0.69412301915310
H          -0.91540079993180   -2.00457764008007    0.05240719358037
H          -0.51923504012592   -3.36811870995584   -0.54744661602139
O          -1.01541560800843    2.71687324895643    0.44667187147933
H          -0.67784763837285    3.54381016422539    0.09698680268695
H          -0.69408040343225    2.01249589355957   -0.13771660137953
O           0.03127172999187    1.47840673613810    2.58027049913053
H          -0.42610639674231    0.62759596216490    2.53235653950303
H           1.20065239179355    1.05012074455629    1.72176552462593
H          -0.45901805192690    2.07714699532885    1.97584516618131
