    19
        -40.92217270
S          -0.71328438028502    0.77430325501159   -0.89211406620465
O          -1.00027974719658    2.17791490101641   -0.81565496708559
O           0.71119068036922    0.48648734554280   -1.10298818813978
O          -1.25306892508859   -0.04026653585782    0.18220578746739
O          -1.43918519099169    0.22611594317332   -2.20823843577050
H          -1.55602732488025    0.99547780824213   -2.75758183571143
O          -0.67643684437099   -2.48711458867233   -0.53496898714533
H          -1.10518784973646   -1.64318956395940   -0.26334574038403
H          -0.79718074123807   -2.55234393679867   -1.48430311270369
O           0.82890653761032    2.18552081316246    1.15868462766143
H           0.09018355990787    2.33897073131126    0.54347058541417
H           1.62440214150603    2.25738303600100    0.62586485185691
O           0.42266978357142   -0.21187722021720    2.26845744138940
H          -0.46215839752216   -0.24561952964547    1.86371345242243
H           0.69787753186223    0.71956563591806    2.11965516506760
O           1.46825726463033   -1.38431719732568    0.32688058957276
H           1.13222968147003   -0.97451633860557    1.25566483958072
H           0.74950580020448   -2.04285536437847    0.04460897946985
H           1.27758644035990   -0.57963917271730   -0.33001098626507
