    19
        -40.92003334
S           0.85898839353760    0.04283596764928    0.18064796924818
O          -0.26137157578478    0.21052327900713    1.07564581698681
O           0.45986526426355   -0.18160197417722   -1.18582358069582
O           1.80713800695582    1.24022039467405    0.27389719727245
O           1.74675012234132   -1.10009324554201    0.67860548310791
H           1.12440747591584   -1.77373398129769    1.13997513389336
O          -0.12151535158516   -2.52241627278126    1.60730892102903
H          -0.61839807757703   -1.76172692203301    1.93212192983606
H          -0.50673673826817   -2.73248193684455    0.72697163117761
O          -0.80809155748587   -2.53277196239732   -0.97343566235618
H          -0.43941754213388   -3.15886390665415   -1.59991795337486
H          -0.40500394456827   -1.66709979292535   -1.17829020877405
O          -1.62846639865826    1.67097986192534   -0.72706550211584
H          -1.37210756988464    1.12989371343627   -1.48079194907557
H          -1.40460763422742    1.13386114746968    0.05275847551298
O           0.41975773491511    3.27756364585256   -0.35369135618635
H           0.24214178730719    3.80660383405892    0.42780717085870
H           1.33639745063459    2.10065256955474   -0.01241377197449
H          -0.42972981570850    2.81765560096488   -0.58430973434401
