    19
        -40.91893407
S          -0.87118283230114    0.75934640130578   -1.29944483010532
O          -0.93744701301269    1.32985323025472    0.05464430823329
O           0.12619441885912    1.40769938351143   -2.11271338493518
O          -0.78105059389781   -0.68682845226774   -1.25154562130208
O          -2.27498988012175    1.08567641814400   -1.96483874653153
H          -2.14294550444038    1.95681598374182   -2.32653379955516
O          -1.01394968771236   -2.15575794559850    0.86879888746283
H          -1.92220800795133   -2.45710187521960    0.93083993675239
H          -0.93025253193820   -1.70183184557968   -0.00969312075854
O           2.14994570356449    0.21261360113282    1.57844312459407
H           2.16104292544910    0.03107984563864    0.60022122406826
H           2.47816040352299    1.10737467349173    1.68705195060692
O           1.93758053148446   -0.16195324569838   -1.00859078343055
H           1.46214134780760   -0.97518830699301   -1.20310440775496
H           1.42658635918409    0.53130887727719   -1.47365003334628
O          -0.32839764172238   -0.00544763873084    2.02929384357368
H           0.70414599183541    0.05055312337710    1.96312710974724
H          -0.65066727862296    0.61735159812416    1.22089648635781
H          -0.59270670999604   -0.94556381592893    1.71679785632178
