    19
        -40.91965201
S          -0.60203992068539   -0.88601547298692    1.10481100431692
O          -0.41538509373748    0.55855706756969    1.31368021812203
O          -0.60482135088991   -1.17574660865180   -0.33223289761358
O           0.29795188044779   -1.70315899363007    1.85562653514681
O          -2.06803072732992   -1.17928570785709    1.61987788116343
H          -2.57477552359889   -0.40427728593076    1.39275460363143
O           1.63568235908220   -0.10313090052795   -1.26295998738100
H           0.91609316730573   -0.74960889689621   -1.10255342387341
H           2.18030080392391   -0.14952722987469   -0.43942264950619
O          -1.90048853559221    0.54347775590643   -1.77660186941604
H          -1.53149688826022   -0.22082378152624   -1.26432229295778
H          -1.95697897801518    0.25783161172544   -2.69039661800393
O           2.42230103625405   -0.23370106220226    1.24459512966003
H           1.77358934437259   -0.89505494137321    1.55775188590272
H           2.26152386204136    0.55253476163727    1.77095268208655
O           0.11076673863476    1.78600702763122   -0.77572543557844
H          -0.10603354427878    1.39925566184121    0.17751304223486
H           0.87446974625869    1.07910890231635   -1.09303834332234
H          -0.71262836593305    1.52355809283054   -1.30030944461548
