    19
        -40.90805019
S           0.76350940005393    1.29226782733260   -0.58970497012829
O           0.54901745953080    0.74965157230945   -1.89770338470673
O          -0.55516203742430    1.31985101377520    0.17940309855897
O           1.78658337796476    0.70450197280187    0.20976459903284
O           1.09987260895501    2.81859545949571   -0.76872848150253
H           0.59467050698567    3.12190807542205   -1.51993080694289
O           1.04172750640276   -1.76192487863084    1.16975883978513
H           0.50089118906349   -1.99996666845259    0.39846452022472
H           1.69070817993290   -1.12673308621603    0.83501928515112
O          -0.26206606753339   -1.71319605099743   -1.25043335325022
H           0.02877977839845   -0.84975591792407   -1.60128116506133
H          -0.31567552005511   -2.31240262708519   -1.99810881731080
O          -2.76987851587984   -0.52492230288315   -0.52286962436856
H          -2.03103262635597   -1.11633797656596   -0.71362593475251
H          -2.37159429104375    0.29792663333185   -0.22890943849620
O          -0.14035765075522    0.21653515533283    2.36060706715752
H          -0.43303127849682    0.88099164410666    1.14319316611529
H           0.21615356173572   -0.66309044997178    2.03033656336017
H           0.60688440848704    0.66610060480409    2.76474882714432
