    19
        -40.92044776
S           0.27932544932102   -0.84048718621149    1.32871480415219
O          -0.82843773702494   -0.06093700169502    1.84599554462852
O          -0.16234765516111   -1.80201503007928    0.32151273296832
O           1.37678769292820   -0.02597412439414    0.83523031128942
O           0.85634090381009   -1.66629528467147    2.54971446102799
H           0.08175903131059   -1.87714324284235    3.06238075393862
O           0.62937066185818    2.31611734691820    0.03790190740270
H           0.91561812960352    1.48266859204883    0.49542289906433
H           1.41969278691811    2.84207950293874   -0.09873035749177
O          -2.22252848355497   -0.15171082852876   -0.32830909238312
H          -1.99184783241520   -1.08099555380604   -0.46160887128640
H          -1.85774257936938    0.03542548833072    0.57455808425318
O          -0.58072935082349    1.04944878326614   -1.79295534561732
H          -0.13691143645883    1.69594963439970   -1.12952161444043
H          -1.37234138794941    0.60828554348794   -1.24650420684367
O           1.05707702239498   -0.86367352646780   -1.74811983541389
H           0.59206017588924   -1.39632536730417   -1.04992095594835
H           0.11065332212216    0.26740557450461   -1.91192038496052
H           1.83420127661097   -0.53182332992089   -1.28384083437590
