    19
        -40.91505821
S           0.28495882814053   -0.98283405284243    1.09385023685563
O           1.18880477873247    0.19953152866239    0.67426936854747
O          -0.88538261385235   -0.99086185332207    0.23991660281288
O           1.03251675262107   -2.18521888926863    1.13041802337017
O          -0.16540425046744   -0.54883105587165    2.51092365284008
H          -0.78447881186712    0.20323501983860    2.37602187957790
O          -0.30328422094371    2.04064757857804   -0.89996070695655
H          -1.04948560021057    2.17219093228898   -0.30746472820355
H           0.42437197289328    1.74797082404335   -0.33874802693859
O          -1.94271592675191    1.08867423071063    1.40640281697763
H          -2.85840762195327    1.01397972995787    1.68463465277683
H          -1.77317334152579    0.35695965856466    0.77670991423852
O          -0.09864099600521   -0.35248082180889   -2.30149333637630
H          -0.58239849751709   -0.75857686624073   -1.56586428017771
H          -0.18753997341743    0.60449634629756   -2.14984215404969
O           2.24755112447373   -0.89158129389269   -1.29844470384624
H           2.23603702685406   -1.81417360223026   -1.02546486800328
H           1.45254767005093   -0.74127225913658   -1.88631563562976
H           1.76412371077181   -0.16185516420223   -0.11954869784945
