    19
        -40.91641692
S           0.78133005651909    0.41531036323596    0.75452314199276
O           0.61001290647189   -0.51374483498516    1.82962940847646
O           1.59161590736472   -0.20195466729271   -0.36888036356981
O          -0.45593603974360    0.95248048365690    0.22930790509225
O           1.68148548959650    1.60362490684581    1.21575931177377
H           1.20396668558979    2.01649629882800    1.96551972269954
O          -0.70317538334693   -1.84800729908747   -2.52089666093245
H          -1.03271705230196   -1.89268625081884   -1.59956651076488
H          -0.08011342901627   -2.56947084438979   -2.62350201604053
O          -0.29282809706821    1.88825043576016    2.93289259141860
H          -0.20344445421475    0.95365033676025    3.15467893000897
H          -0.96155287945295    1.93927595699550    2.24216529138880
O          -1.32484924228597   -1.63279906802348    0.10756107333399
H          -0.71793712757586   -1.85424356054787    0.82185324527055
H          -1.37832436098125   -0.66688819948947    0.12354536804904
O           0.38729363556238    0.54439642871584   -2.41221907749661
H          -0.26702533345162    1.05602160586196   -1.91980320565706
H           1.21234258041333    0.13118082310658   -1.29866602140686
H          -0.05014386208109   -0.32089290517044   -2.63390214359893
