    19
        -40.92453849
S           0.75074988868342    0.95342453868762    0.92187967441648
O          -0.61667247706011    1.44904647810986    0.81552845763068
O           0.77590094807447   -0.36829266401604    1.53898532064991
O           1.45368285317014    0.98883727772259   -0.34332071382931
O           1.52528901730105    1.93043423554204    1.89157899689734
H           1.04560714494950    1.89280064135645    2.71386314432451
O          -1.65440802136270   -1.09043646553953    1.00157495962199
H          -2.06558451892630   -0.22074805113725    1.07078394474878
H          -0.73779800967619   -0.94230955997234    1.34829649009199
O          -0.97737808996579   -1.33033176684608   -1.41330930397094
H           0.03894039821767   -1.54328259292782   -1.28040465284212
H          -1.37284521828328   -1.34246741938291   -0.44557312721413
O           1.46909687976343   -1.55788984206940   -0.85135265813625
H           1.50841376443657   -1.86863852046437    0.06098397117480
H           1.64971427766785   -0.58895446079825   -0.77308688346087
O          -0.88533277094542    1.16529373218568   -1.75513799219823
H           0.01832838642528    1.37956976129818   -2.01442849893553
H          -1.00805376414643   -0.32083426039268   -1.68905369837117
H          -0.91765069823478    1.41477892895840   -0.79780743086734
