    19
        -40.91535437
S          -1.28931201666434   -1.51963564889668   -0.19279108891140
O          -0.35687916267594   -1.96672626140525    0.79865326838473
O          -2.22004453365953   -0.46352622375825    0.37898461467809
O          -0.73195027330590   -1.08484788613441   -1.43892315101255
O          -2.28019965713584   -2.69744004341239   -0.49851183215657
H          -2.48107136612311   -3.08857933335965    0.34856019152156
O           1.07344737941324    0.09065017426897    1.87542374587013
H           0.69385883698650   -0.77614548565574    1.65580749020809
H           1.81421359723082    0.22267184393780    1.25211399732067
O           0.42556046919545    1.26416674276592   -1.64376986170506
H           0.28381521489900    1.61339151765714   -2.52561529884003
H           0.04855473548866    0.35467710554997   -1.64631097483557
O           2.73383717043296    0.78930374163788   -0.17555651489261
H           3.19402100893558    1.62163202540080   -0.05490293826128
H           2.00830934646618    0.95522383653146   -0.80056771034559
O          -0.79543197884654    1.50005973111749    0.79610205835681
H          -1.65991654623861    0.44855677811532    0.59519651062803
H          -0.07070935980401    1.06779440103534    1.35066119349054
H          -0.39010286463292    1.66877299462581   -0.07455368935856
