    19
        -40.91451140
S           0.29113976269330   -0.12730265298576    1.51227429373130
O           1.32415331122403   -0.90204713129862    0.71448086395722
O           0.68901311780748    1.23882019587731    1.64365353150591
O          -1.02718129788126   -0.39129768986530    1.02225318226479
O           0.37193661874908   -0.77768092859187    2.95052206333946
H           1.12989346020115   -0.41162200494169    3.40255398082464
O          -1.82040330247978    2.09926948113371    0.18022509036685
H          -1.79985597077073    1.17979495341600    0.48591099343443
H          -1.40563160917236    2.61526914865453    0.87586473296627
O           0.23827621869394   -0.72389216113409   -2.68346647336968
H           0.29700059090708    0.11368867154561   -2.16965436612979
H           1.05407215140305   -0.78806158033732   -3.18281242935051
O           0.45962872650771    1.44179835852522   -1.13135473680217
H          -0.43100350281743    1.80271154463422   -0.95314223948524
H           0.90018938522336    1.44977632602368   -0.27502345601974
O          -0.11106077308974   -2.33945659920208   -0.67826420982033
H           0.79322171398379   -1.61573322011767    0.10743550895531
H          -0.93002580988723   -2.01841507441061   -0.27671462229240
H          -0.02336278126786   -1.84561962691109   -1.54474168801279
