    19
        -40.91892051
S          -0.15954004040585   -0.20973664807378   -1.14441657870027
O          -0.78603009985125    1.03207548829676   -0.48225277799428
O           1.26608330084777   -0.02938430159070   -1.18034022986916
O          -0.63585882900835   -1.39651471160642   -0.50099196326195
O          -0.71614392919443   -0.16082134605210   -2.58871401547186
H          -0.31577320626807    0.65341803321432   -2.98396148511110
O           0.20134525042885   -0.18307306543478    2.95441260778348
H           0.25216536040242   -0.64248197971920    3.79436936330676
H           0.80235515367780   -0.66150214954980    2.33843845511312
O           1.56626241556401   -1.56134022945749    1.10749894934679
H           1.97436521511930   -0.97592202390494    0.45756871519320
H           0.79991074489607   -1.92293935501274    0.64100015721259
O           0.69096563428983    2.01498814364614   -2.84650075286372
H           1.30375361443326    1.49448926602374   -2.30298328235531
H           0.28525137710329    2.65754009011765   -2.25783022256466
O          -1.97608514780477    0.00875903437644    1.46323882266239
H          -1.35281479396666    0.73447892962373    0.34119561660173
H          -1.95431054480931   -0.86751118816394    1.05772318404922
H          -1.24590148503695    0.01547802324820    2.13254544682114
