    19
        -40.91476089
S          -0.62677114626304   -0.93891591978775   -0.50476178030142
O           0.43208443421403   -0.12003878131071   -1.13170260791633
O          -0.09995909049373   -1.67818551209323    0.62276374842207
O          -1.77741271645602   -0.10567630435688   -0.18251714212798
O          -1.10584679906474   -1.95989816159373   -1.58694157293394
H          -0.31061667344608   -2.49341082031096   -1.79164408111120
O           0.65999147066971    0.32516552967071    2.17708752868176
H           1.58943539088792    0.13798661071446    2.32412891582314
H           0.30552058866592   -0.44276597600786    1.67893231907451
O           1.42715021051882   -2.70415096277549   -1.41397121384479
H           1.22645530914591   -2.73955221776062   -0.46905078112260
H           1.63792492086380   -1.77951257890666   -1.59266438507761
O          -0.03118224340648    2.71348340995232    1.30960796274622
H           0.27916886564130    1.83831135077976    1.65841814231566
H          -0.75334702745163    2.98455972944864    1.88093038810706
O          -0.80596342367092    1.99473427733429   -0.98497273934095
H          -0.47056915676321    2.41839288104014   -0.09437421381936
H          -0.08669456272188    1.27943290402077   -1.22746279782075
H          -1.48936834088093    1.27004054193674   -0.67180569973842
