    19
        -40.91893302
S           1.33335747176826   -0.95594857590634   -0.57047644894026
O           1.67078327868664   -0.45033709995400   -1.87679359123169
O           1.54322407104158    0.04788258826238    0.48384184746278
O           0.01813313759437   -1.55647394069888   -0.46299566242987
O           2.36882540435928   -2.11879090018628   -0.25925816885217
H           3.15332256446279   -1.83632680338909   -0.71964221432619
O          -1.64960355123723   -1.22776980083651    1.49141657005926
H          -1.08903354802183   -1.44730755291149    0.70265025077223
H          -1.53226347081094   -1.94757503792611    2.11408467840392
O          -0.72170087829099    0.66335711462986   -1.95831852759520
H          -1.18783743171400   -0.15402019788298   -1.75846920825093
H           0.20856498484214    0.38476117942960   -2.07906073754749
O          -1.10233182697298    2.44022298437228   -0.06521903753865
H          -0.48836387943955    3.15424773835687   -0.24771111136544
H          -1.03031405147557    1.81121558966480   -0.83230151395930
O          -0.33733228857467    0.92165870774759    1.80676185411815
H          -0.97135160662584    0.11612126056643    1.80129683720642
H           0.53097765682033    0.54969434858684    1.30258366819488
H          -0.71705603641708    1.60538839807233    1.12761051581631
