    19
        -40.91904994
S           0.72489842595850   -0.29295356201065    0.86745541790902
O           1.12995182199657    0.02292070308334   -0.58526253819759
O           0.21934528102263    0.92418896659999    1.45078852260566
O          -0.14293163273068   -1.42426614302708    0.89916804112111
O           2.06883401649307   -0.65634927071606    1.54645091125981
H           2.59525742958145    0.18111783143995    1.53132713680493
O          -2.35524171397366    0.36631159490871    0.75303287073720
H          -1.52775022654030    0.76991453346768    1.05999851781038
H          -2.35633632037863   -0.51588523895385    1.13497821660413
O           2.74190799834867    1.82625524252076    1.13243775899828
H           2.80831311832390    1.91592815568863    0.17773796375457
H           1.80509519045865    1.94766243021373    1.35521090490302
O          -2.26876693993261   -0.11322434822433   -1.88946342477250
H          -2.39569495401756    0.08607324987252   -0.93459427204938
H          -2.24504755435550    0.73092890546517   -2.34236055743260
O          -0.15653185341496   -1.69143705640073   -1.85199088592383
H           0.68107054164002   -0.68340097102858   -1.21961167655953
H          -0.34135913185447   -2.22120241600395   -1.06582805528654
H          -0.98501350663275   -1.17258261689035   -2.01947485228054
