    19
        -40.91893380
S           0.87823089556753    1.42489185699184    0.47412484174031
O           0.80864875693685    2.32661190308429   -0.64758064564172
O          -0.39213186930820    1.12944060194844    1.10699876221302
O           1.60517677800946    0.18884552412427    0.14643682247180
O           1.75605024821947    2.15082071112924    1.58001789714895
H           2.37576669743393    2.65697509163284    1.06334066384735
O          -1.25363816695606    0.93454889904470   -1.52841388805911
H          -1.74358874426764    0.99500149948130   -0.70287492486851
H          -0.48231588574983    1.52156883515646   -1.39289537607551
O          -0.63925324400812   -1.55492365626044   -2.08327703643685
H          -0.95062074779664   -0.62215337231911   -1.93345993659015
H          -0.01998496621632   -1.51448485407912   -2.81472703284653
O          -1.20516738408083   -1.20575675510952    1.87719248278511
H          -0.99402285778366   -0.26439666958168    1.64482095580367
H          -1.00520169692154   -1.30438176784887    2.80983990502171
O           0.47307069756739   -1.99512278541099    0.14466633240310
H           1.03793941209081   -1.08611757482415    0.17246285214741
H          -0.24744371691429   -1.84232234161678    0.85777010526332
H          -0.00151421584830   -1.93904514555201   -0.77444278035571
