    19
        -40.92453851
S           0.74656616697084   -0.82707929496353   -1.03969132487251
O           1.62959712427621    0.25565558699794   -0.61976408956737
O           0.44741396487908   -1.71442878958479    0.07825867834257
O          -0.44793031371045   -0.34417583483898   -1.70020192750672
O           1.53656420693554   -1.67832790562318   -2.11023181160058
H           2.31240974345853   -1.98980860280548   -1.65316485269807
O          -1.16077758289433    1.20570767194325    1.38628763907049
H          -0.24074003929272    0.87013030512759    1.75251738489955
H          -0.91891088409084    1.71071328412505    0.50190362745014
O          -0.40270088020400    2.10671225874810   -0.84233561507520
H           0.55538045923409    2.20163102311958   -0.78249635071246
H          -0.52002107575354    1.26227884836855   -1.34298679869414
O           1.09818843983883    0.22446979366670    1.91667121338416
H           0.95453889214198   -0.72493441699677    2.00697547439091
H           1.46541450722984    0.31792851059954    1.00089373747744
O          -2.01700743734940   -0.97336175371837    0.45236068669573
H          -1.64572052444141    0.33208166070924    1.07392535202964
H          -2.25334796104750   -0.80954741997893   -0.46807261978850
H          -1.13891679622398   -1.42564493489998    0.38915159677108
