    19
        -40.91820701
S          -0.90248161353381    0.17082781105136    0.46163822254498
O          -0.98493900589332    0.18214048342421   -1.06486905030218
O          -0.65719829808080   -1.17568794456871    0.90904883927709
O           0.03657327811950    1.15992855856782    0.90593982571304
O          -2.31696053634137    0.59355228895934    0.93107978330818
H          -2.89088730442453   -0.21463375991514    0.88250136764113
O           2.76544867485140    0.26623271141589   -1.56161966696893
H           2.58925544997002   -0.16443539728275   -0.69577046129021
H           3.68338936846806    0.54220757214644   -1.54545505829861
O           2.08700054139856   -0.62038335915508    0.88224057033075
H           1.57991434171395    0.16544110224254    1.13504282607082
H           1.43740786084326   -1.33178354009239    0.90326790544175
O          -3.23015163121157   -1.83950623894246    0.88852373278354
H          -3.52054508928352   -2.20643655399050    1.72743928570944
H          -2.26761072472302   -1.98226047541823    0.83448519872198
O           0.70443097290284    1.93415128478821   -1.64807818498975
H           0.73355276455076    2.23872912031501   -0.73169030260678
H           1.50532262611765    1.36601521484466   -1.77064503445712
H          -0.35152168536703    0.91590113157294   -1.44307977863962
