    19
        -40.91335388
S           0.96607382819827   -1.13253652679422    1.18270193041481
O           0.10583894851959   -0.38686185424260    2.05107582119883
O           0.14358359127708   -2.17558056939505    0.40340397934934
O           1.80582579544280   -0.38943495532560    0.30586732929701
O           1.86112959476179   -2.06552466381763    2.06622266926889
H           1.29983544663312   -2.37680831650643    2.77288118204918
O          -0.08280394671013    2.76791305942125   -0.57178319409763
H          -0.79923842196882    2.29070098668568   -0.09661574274260
H           0.55827109639183    3.01758994469840    0.09560505522623
O          -1.75759777716134    1.08940957260016    0.69372603788148
H          -1.94739360927206    0.43627952927208    0.01064243061535
H          -1.17280878137209    0.64737794638805    1.33019017373259
O           0.72734411424021    0.65241373678729   -1.97400046699103
H           1.37379058971136    0.32730705547366   -1.32762586418039
H           0.45507080139898    1.53719546503755   -1.63278060092194
O          -1.18504139035653   -0.88383994749289   -1.30483112076565
H          -0.46200846369142   -0.24354251415604   -1.65335881704295
H          -1.45545265963194   -1.41744884291544   -2.05530597959297
H          -0.43441874641487   -1.69460911571631   -0.29601481270058
