    19
        -40.91832165
S          -0.21846960403255   -0.37855410938772   -1.32196252200694
O           0.11434477664257   -1.59498372069622   -0.44190173163319
O          -0.12751115028472   -0.76331578866008   -2.69173693607158
O          -1.42892236767376    0.23572931025049   -0.86247671439997
O           0.94472016490728    0.62098722205726   -0.99683330283449
H           1.74716397510072    0.17448890433651   -1.36429689287029
O           2.48359022778676   -1.10617797028916   -2.18024819057396
H           1.69606743363333   -1.18141654446067   -2.74469061489683
H           2.50369583302655   -1.89950761124724   -1.63806643146946
O          -0.64281521167629    2.34660635272328    0.64026274109963
H          -1.07346116384681    1.69297439483598    0.06084337437297
H           0.20216699929140    2.53123112957812    0.22270884860399
O          -0.26810716595019    0.78171628364050    2.76762477885465
H          -0.36130191371570    1.44302692976724    2.04186594524890
H          -0.69779758548650    1.15940927492441    3.53693629048463
O          -1.41766923399561   -1.22716098207877    1.50187693718582
H          -0.46463610308078   -1.54993526383160    0.42226679997642
H          -0.95037364915900   -0.56757213383879    2.07846010325721
H          -2.04068426146233   -0.71754567763843    0.96936753768212
