    19
        -40.91814260
S          -0.50962615131625    1.65061025003888    0.35549357954682
O          -0.27914521105539    1.30319364440700   -1.05280132370751
O          -1.89982136398017    1.76719422431018    0.68647017884402
O           0.26567444819934    0.77434280239010    1.22800144131011
O           0.13059046999684    3.09460265239932    0.54622315897022
H          -0.61017606362775    3.67862637321872    0.41469696461814
O           2.38096235708421   -0.49676115424490    0.44066924601646
H           3.12356413063709    0.10996806712337    0.44493511644979
H           1.62743089872578   -0.01671548605951    0.87346748527957
O          -0.76179507389023   -2.42409758459044   -0.90911938802228
H          -1.26408578889195   -1.89171674963891   -0.23653251053689
H          -0.42753264782946   -3.19460742772572   -0.44540180061072
O          -1.77491782801046   -0.92664284626189    0.99082080090927
H          -2.34835449046783   -0.17266960566066    0.79840830590141
H          -0.97765482399692   -0.50308240719443    1.34991907778369
O           0.96768693450520   -0.72767983238970   -1.65918425251634
H           1.65102456753475   -0.73278983956908   -0.89682351907291
H           0.28255597329701   -1.47184298274684   -1.44774146949255
H           0.42361965307265    0.18006791221437   -1.48150109164333
