    19
        -40.91904992
S          -0.96136470154483    0.22576208576764    0.62271401879219
O          -0.18325931121118   -1.10408752555351    0.60543883150119
O          -0.10904212580746    1.21827853373423    1.22781109504346
O          -1.45728136415173    0.52035422054087   -0.68159776916388
O          -2.15027015418947   -0.06335401568864    1.57210098866313
H          -1.73744966187775   -0.20608922542281    2.45993448563693
O           0.92658026471245    2.00629785593349   -1.16626103801825
H           0.07303835348504    2.14061702495996   -1.58763660099342
H           0.72201460952645    1.86266276870882   -0.22846663671357
O           1.82449075263074   -0.25277057318143   -2.31150445081791
H           1.56127114239340    0.62272321166015   -1.94840510013765
H           2.67508336568500   -0.46325969100341   -1.92353502283917
O          -0.36363215276273   -0.28039471265395    3.45535535638491
H           0.14674222323550   -1.06510124356363    3.23707722337932
H           0.02395720986311    0.44995256864020    2.94690614970719
O          -0.30189227277120   -1.72710408390297   -1.80234897958505
H          -0.21184228353310   -1.49697342370544   -0.36785755336020
H          -1.00836399497522   -1.09648789515975   -1.99243851767784
H           0.53122009128807   -1.29102586016165   -2.11728648983589
