    19
        -40.92453850
S          -0.12773547917593    0.52210458524610    1.42615299184067
O          -0.64184513411212    1.55298686167496    0.53102298967558
O          -0.93627161939420   -0.68852073894001    1.33999228323240
O           1.28229625923250    0.26362070853111    1.22294113418350
O          -0.27371324574122    1.07433575802407    2.89876630814297
H          -1.20701192852777    1.22952898523329    3.01139412627015
O          -1.90969546116170    0.02242114022922   -1.13242835855726
H          -2.18920302938268   -0.65146054611732   -0.50164897945571
H          -1.54509428731585    0.74244707091927   -0.55718108844843
O           0.31979730107131   -0.75266338718995   -2.01352763007676
H          -0.66266533663191   -0.46892059308501   -1.79655235741431
H           0.55989874481818   -1.43877725469830   -1.26006399660475
O           0.77379256434773   -2.14936889349331    0.03499251279746
H           1.58189875412759   -1.80641187623792    0.43398311444925
H           0.05609128086537   -1.76589864911271    0.59851608982188
O           1.52682827333963    1.28544644160473   -1.15210221890411
H           0.88920228524809    0.09818893069689   -1.79533488030250
H           0.85898220153105    1.97552271624133   -1.06132793615620
H           1.64444782687684    0.95541874045309   -0.22759409448528
