    19
        -40.92071437
S           0.69554969494062   -0.85599594832057   -0.99046983548195
O           1.29370182669536    0.36548801903565   -0.50306745423340
O           1.32087946557628   -2.05898633512841   -0.49122720244578
O          -0.75966358535725   -0.85448250300047   -0.74113732796762
O           0.85956386454171   -0.87465242530941   -2.56186050897789
H           0.86253017142181   -1.80247793888706   -2.77939660719714
O          -1.94344450164498    1.50968941041623   -1.19382840686756
H          -1.53643394042824    0.62050692083908   -1.19119475591303
H          -2.88811287516610    1.37857677158685   -1.28696441792036
O          -0.23333080178226    2.08687612823953    0.76552866703759
H           0.50600847162762    1.68062542353860    0.25693369744021
H          -0.93656821298608    2.20679418994415    0.09273234907840
O           1.49605392481403   -1.10009067573221    1.93842595949683
H           1.51166465519756   -1.62633203450068    1.10425817253989
H           2.12441534915200   -0.38636180713093    1.79449372535075
O          -0.83905456472575   -0.13578750090508    1.66980940281832
H           0.06402960475831   -0.53494828234141    1.96310944891972
H          -0.63123603659840    0.91469086265443    1.42166576463704
H          -0.96655250006473   -0.53313228499099    0.73218932974128
