    19
        -40.91904976
S          -1.01282356021962   -0.28220377890742   -0.50903612871706
O          -0.79177255653772    0.84778456453172    0.51481428105807
O          -0.29908523001472    0.07487384813277   -1.70926948817080
O          -0.68947767206588   -1.54274335768035    0.07427562935410
O          -2.53456814605074   -0.22140166857125   -0.79161007479061
H          -2.67558021611521    0.65115986410804   -1.23600358090130
O          -2.06182164623788    2.11190767459410   -1.85002174038291
H          -1.26903061616053    1.63602923532490   -2.14513061257092
H          -1.78634009444946    2.67271932478849   -1.11967247090950
O           2.52510064865811   -0.27031972586513    1.51110239695951
H           2.96290139840957    0.57508698244383    1.40201794153681
H           2.41390680375012   -0.64527362528031    0.60863143507167
O           1.96155811055612   -1.23368573041379   -0.93381530721714
H           1.51985382203730   -2.06645474594379   -0.74567625847004
H           1.29132073301144   -0.69008285850687   -1.37783930689810
O           0.07594793291558   -0.41381471409041    2.47793566208177
H          -0.47025237235139    0.42244515011080    1.41945745539217
H          -0.20628070082654   -1.26867529444605    2.12790314742590
H           1.04644335168107   -0.35735115432610    2.28193701015126
