    19
        -40.91505764
S          -0.94717316175768   -1.13425188098159   -0.17286853273469
O          -0.56412211567975   -0.54771729357702    1.09498056715762
O          -0.20594412953613   -0.38356808643468   -1.30363339166042
O          -0.74417420745290   -2.53081748630104   -0.29504302133743
O          -2.42105044002973   -0.74659177776244   -0.44851651178741
H          -2.49669136178878    0.20400395989701   -0.20649431011798
O          -1.98263021531124    1.60665886046687    0.69964207137567
H          -2.57094247498396    1.87460496807977    1.40937270870709
H          -1.34688917827118    0.96561567500789    1.08062102402061
O           0.80424375127312    2.08026127579517   -0.31109757363747
H           0.51191883395842    1.44123320467328   -0.97189637585503
H           0.00001148904039    2.45373007422977    0.06084961651172
O           2.11551020505121   -0.00571854530483    0.98608270299104
H           1.24326872380207   -0.25761994723533    1.32647071904607
H           1.97995133004876    0.87994245975975    0.60775207070168
O           1.97189681967038   -1.57256674316710   -1.09587066813107
H           1.67382747173380   -2.43248385273919   -0.78312413661584
H           0.72549708806938   -0.85191099817696   -1.38092144447487
H           2.25349159203945   -1.04280384639045   -0.29630550438766
