    19
        -40.91493698
S           0.09417519503830   -0.00506109167354   -1.70988345212836
O           0.62409257803743   -1.22933050756252   -0.98610602939383
O          -1.28603110778960   -0.19745921318669   -2.03284828833146
O           0.45421023641646    1.18352172517971   -1.00230953073452
O           0.89590396159704    0.00923363525479   -3.06922092195189
H           0.46873946038683   -0.61072446348604   -3.65637430952313
O          -2.57422671982747   -0.45172063502687    0.33159128750032
H          -2.17471601095674   -0.44822607388064   -0.55625582826406
H          -3.49785722466075   -0.22031800435555    0.21328747039863
O           0.97362296147635   -0.24214551897076    2.60682029706740
H           0.50436591270382   -1.06409588781755    2.76020585206560
H           0.29035941830137    0.41382702571648    2.31218786812692
O          -0.82457471802076    1.30802869984268    1.45365568288272
H          -1.54711436917842    0.69894427587046    1.21024419476387
H          -0.38903856924685    1.53010178391624    0.61857105629502
O           2.37103765565012   -0.21298568278791    0.42235095715823
H           1.96044702438854   -0.26019297655245    1.33937592287777
H           1.43873185585823   -0.89175459918658   -0.37208942257073
H           2.21787246995161    0.69035749881520    0.11679717376710
