    19
        -40.91226082
S          -1.18301656462731   -0.68685836616751    1.18165788874535
O          -1.18419674595197    0.59155263702836    2.01312487566984
O          -2.05402077293624   -0.57518402451513    0.05464973304309
O           0.15407227410975   -1.12880681080144    0.91772409868226
O          -1.82095773938251   -1.70632316949684    2.19243053244175
H          -2.75920335569594   -1.52946315987478    2.19897836476189
O           1.91028815687998    0.80359792158677    0.01087326327748
H           1.82500076035769    0.70157184462163   -0.96467908139941
H           1.52503919194257   -0.00093011875419    0.38998638618614
O           1.42810914352522    0.24281045113808   -2.56363826807219
H           0.74529301164291   -0.44340308977470   -2.39167672861172
H           2.09482565059497   -0.17246046551143   -3.11265846953290
O          -0.28639151473451   -1.65632818077327   -1.73571671495290
H           0.10853129677931   -1.78013428509679   -0.86191113848939
H          -1.14734635813643   -1.26288271125990   -1.54202277214573
O           0.06343967412120    2.38067211834579    0.81956827997423
H           0.44372486408035    2.99600215031568    1.45142375020384
H           0.83851851275799    1.84713726917570    0.43649918427482
H          -0.70170948531288    1.37942998981037    1.50538682594038
