    19
        -40.91892062
S           0.21682546592241    0.05308747363981    1.15295224515206
O           1.36596131836886   -0.13662131263102    0.14469168843983
O          -0.29999674574506    1.38551644556742    0.99968317889421
O          -0.72623901985250   -1.01599377596667    1.02275379669976
O           0.92529256334445   -0.06437044102972    2.52515485997561
H           1.52479353714928    0.72191454749692    2.56612661427576
O          -1.06736851365790   -0.62406766679819   -2.69845778667701
H          -1.58031993902011   -0.14444483747900   -2.00844717616085
H          -1.70880228754838   -0.97451547210066   -3.31879839366162
O          -2.35262215330970    0.45300062952012   -0.60911833373695
H          -2.16613220508132   -0.25622981884368    0.02163235780124
H          -1.87575325102608    1.21091433907532   -0.24854886513336
O           2.14487680039864    2.13891961805475    1.86148143576193
H           2.70827453285454    1.90743625008144    1.11781694395778
H           1.26756312278464    2.32731830309878    1.49192105126405
O           0.54013975703589   -2.08448857954391   -1.18620094066690
H           0.01369520762669   -1.60773317350944   -1.87646342630948
H           1.15975629073614   -0.95997790772598   -0.46174212757541
H          -0.08994448098797   -2.32966460088359   -0.49643713231712
