    19
        -40.91907731
S           0.95011195568228   -1.36993887657694    0.02789352199858
O          -0.46324413170521   -1.51164275223261   -0.23649789641367
O           1.78706927503930   -1.45338786352773   -1.14614866684917
O           1.21832028484172   -0.13931781540199    0.80195485212325
O           1.36545295217789   -2.56111940395574    0.98407939528873
H           2.30412350212290   -2.66937075002450    0.85486067972864
O          -1.29755023180883   -0.17213346891568    1.87843518054723
H          -0.36310149322519   -0.04237966375890    2.08658957222645
H          -1.26788003881587   -0.82394034536882    1.15042992039334
O           0.42551858344825    1.72923498358169   -0.62560791305771
H           0.85706843969081    1.01645356870511    0.02150833671584
H          -0.50629243717612    1.93288685120896   -0.21073726575752
O          -1.81015649208732    1.99377239339161    0.52189239051583
H          -1.92869325797743    2.72523833955555    1.13051954184954
H          -1.75786774162807    1.16133787289586    1.07618485453429
O           0.06826214496907    0.02920419995222   -2.45861921588241
H           0.84321127589545   -0.53470274809115   -2.23792013736415
H          -0.68317433689739   -0.48160347522078   -2.13069684193589
H           0.25882172743423    1.17140898374609   -1.48812029864588
