    19
        -40.92071428
S           1.10638566046266   -0.98653330375364    0.03078217646576
O           0.75091209036982   -2.35919038552210    0.30804712632516
O           0.58504792378172   -0.48345119503017   -1.21904236463984
O           0.73362556582395   -0.09186173503890    1.14463987419642
O           2.68320025848504   -0.93045590277198   -0.05231550598347
H           2.96859827994566   -1.61306313244482    0.54833093578513
O           0.90875403452064    2.51936394566011    0.55670640020905
H           0.92042952654528    3.02572497325585    1.37020953911586
H           1.00658474180865    1.58003162202657    0.81052896599923
O          -0.93096749043799    1.66245363951558   -1.16867856538581
H          -0.33286983278189    0.93963272045443   -1.46867120609293
H          -0.33127076572550    2.27292948573313   -0.68953447648157
O          -1.72079453894869    0.24133710314098    0.69741253930142
H          -0.77133696425239    0.12156743929691    1.06824853289994
H          -1.53273912800073    0.94216170712841   -0.12773191921566
O          -1.71723473186886   -2.00528530880478   -0.48818411803251
H          -0.84851442996550   -2.32547527034348   -0.14756924206461
H          -1.90540800064490   -0.66885904276441    0.25149812508005
H          -1.57240219903822   -1.84102733991998   -1.42467681756734
