    19
        -40.91041365
S          -0.69296452721233   -0.85587696354564    1.31409909141780
O          -1.86870211174073   -0.78263008496362    0.49804879675820
O           0.21231300212064   -1.99939147733999    0.85693794892415
O           0.04604546082966    0.35083639484890    1.48674492155261
O          -1.13036383670165   -1.36725524683390    2.73323443195853
H          -1.76508980984375   -2.06153598057362    2.57263626192882
O          -1.69227484967347    0.67349115087404   -1.78930884775167
H          -1.78912319560986    0.08555786098912   -1.01990556704152
H          -2.57897928912276    0.93058197255799   -2.04815932145218
O           2.24675520984008    1.04935510625725   -0.19083804562598
H           2.01513397929219    0.90808981742222    0.73389957032244
H           1.56284894789006    1.69186295070847   -0.50020256947518
O          -0.00786304717837    2.40209414379455   -0.51040216273769
H          -0.20851488718508    2.01919383023252    0.35227789036953
H          -0.55302831180268    1.89791443032172   -1.14249361373174
O           1.45540748492039   -1.20572502476491   -1.14355529808155
H           2.23272405215578   -1.73636181115112   -1.33419906940572
H           0.72396032654424   -1.70688199117304   -0.00976483343577
H           1.79171540258018   -0.29331908769782   -0.85904957437998
