    19
        -40.91285619
S           0.48799496981065   -0.18736764770299   -1.62949979848448
O           0.95434024826619   -1.36138605392923   -0.88077721330607
O          -0.85554093131862    0.18918397042838   -1.20337777231766
O           1.44058170385759    0.88700086237837   -1.64992332214217
O           0.31044641185017   -0.67350101954849   -3.13020226739747
H           1.18899964445223   -0.68191336112265   -3.49968030930432
O           1.87240747789546    1.85869553291377    0.80303989644896
H           2.20733327831701    2.75083054388389    0.69398182308063
H           1.82551083528461    1.47501590925964   -0.09558427716410
O          -0.72188850578957    1.36228132603532    1.25795392892946
H          -0.88828566562382    1.13966050661429    0.32632533329674
H           0.22603462340770    1.61179451132979    1.28611210704730
O          -1.13435592900093   -0.92505739733340    2.36755102390815
H          -1.96514664950774   -0.87343864333321    2.84418099210117
H          -0.92427008734865    0.01090511361698    2.05223530585603
O          -1.20247601225549   -1.93523501630052    0.07542727450279
H          -0.17980827527873   -1.91335076251094   -0.25472816786310
H          -1.18493513768057   -1.62126769026777    1.08620281100413
H          -1.45694198937476   -1.11285068442961   -0.44923737820225
