    19
        -40.92267745
S           0.17764901641685   -0.44438752728150   -0.95106734466263
O          -0.35541701263188    0.86808703574577   -1.23732812870413
O           1.60528586442405   -0.42859081274163   -0.66811442108153
O          -0.55086777938463   -1.06775844100503    0.18175030891904
O          -0.08294136139033   -1.35245109806588   -2.18493886665575
H           0.33635039113861   -2.20288659210197   -1.92557622781698
O           1.48451629179581    1.56888003842834    1.02453586044708
H           1.30712029210471    2.31786798727433    0.44881985151002
H           1.70785284398370    0.82176835464926    0.41952952499332
O          -2.11375105247146    2.05125006361976    0.28431272255373
H          -1.50240340206049    1.72172067083656   -0.41992473645883
H          -2.99297412123337    1.75768050286587    0.03781849888980
O           1.22372666288649   -3.09414702137938   -0.72163989367190
H           1.77097658627866   -2.30373895564331   -0.58769434798059
H           0.58684609900203   -3.09168819144050    0.00019887044219
O          -0.72384968411619    0.67300857033168    1.90381213781319
H           0.20039542555382    1.09595125315480    1.73125045772142
H          -1.38634179838465    1.29368425923791    1.42790678888674
H          -0.69217325190970   -0.18425009648495    1.23634895485543
