    19
        -40.91517836
S          -1.85367672069324   -0.48636155999640    0.08535460918011
O          -1.13085411642811    0.14306950335339    1.19048375763474
O          -3.23901812703373   -0.16996974417621   -0.00622373111007
O          -1.09124137030081   -0.31782566567575   -1.15913682225544
O          -1.78069872790516   -2.06640918720726    0.37773304772601
H          -2.70182860932979   -2.30350612429484    0.33935454894437
O           0.90782118543546   -1.46448028890301    0.81240482791297
H           0.44132153265824   -2.23613517551405    0.48236577521966
H           0.19197657843808   -0.84889706786153    1.07673418693608
O           2.51221744937632   -0.16280639675357   -0.80639800247110
H           2.76363513617414   -0.76848354044467   -1.50590877510541
H           1.99882475759960   -0.69412664196688   -0.14098743937483
O           0.15152107511145    2.39617190074092    0.94172336726681
H          -0.44619169186562    1.63801742063944    1.15353551308669
H           0.86915935243890    2.35933904028229    1.57847133006151
O           0.62393492542785    1.43689849018121   -1.36286865572740
H           0.48322201608589    1.96837492735338   -0.49491701577136
H           1.46737874508030    0.86317915913507   -1.21283249137385
H          -0.16750338029304    0.71395093094967   -1.34888802086889
