    19
        -40.91892623
S           0.96932330097164    0.78991731773289   -0.70303147659643
O           1.34388980608611    0.07849531167550    0.53351716396446
O          -0.04481527961534    0.06536117571263   -1.42795544269800
O           0.64882057954604    2.17562751461727   -0.43647780890015
O           2.26966690167002    0.77973110242665   -1.60313747012771
H           2.81523200155844    1.47307463207452   -1.24339177484797
O          -1.53678240262769    1.99722398595447    0.95670736868978
H          -1.55902526030165    2.74021188910953    1.56378973927928
H          -0.76701120617206    2.15405708163254    0.35188671064241
O          -1.64363276772977   -1.78889896107714   -0.16604981652717
H          -1.59072148982040   -1.11729886780123   -0.86396754001324
H          -0.84512402024466   -2.34201431455805   -0.32557661140897
O           0.88786512260327   -2.38141397993132   -0.77593873381746
H           1.48455916335813   -2.10854344866202   -0.07291004253487
H           0.72045487535389   -1.57072114332679   -1.28539671744812
O          -0.81448140533983   -0.32742307469877    1.68658185023842
H           0.15985206909440   -0.20409135631217    1.30954591666524
H          -1.23698630758432    0.58792846785712    1.51039516439639
H          -1.26108368069314   -1.00122332238752    0.99140953135465
