    19
        -40.91907706
S          -0.03205786443367    0.57117048091886   -1.56630021961898
O          -0.54122073873456    1.41467154399409   -0.50931196563464
O           1.29087271683855    0.92434759870221   -2.02558310230627
O          -0.11445169731884   -0.85457881615838   -1.18489480951495
O          -1.01220804693368    0.72895675355949   -2.79936148988913
H          -0.49382351371460    0.48788246898856   -3.56259832681164
O           1.29629729527761   -1.08244118667804    0.84313590868019
H           0.73605586593315   -1.10602835049396   -0.05120356367595
H           0.58420962380015   -1.06521754074531    1.60084161002547
O          -2.20158292326204   -0.35969413467169    0.51906251002028
H          -1.88769298550751   -0.96561391652852   -0.16447649671122
H          -1.81343492422193    0.49503825437419    0.24562617123239
O          -0.61184937229862   -0.96189709869437    2.49547322267932
H          -0.91480544212041   -1.77367929292880    2.90624714059132
H          -1.31814988587801   -0.68728289377522    1.84100454582199
O           2.03476145800456    1.30263737824486    0.46090521932344
H           1.23588668500614    1.80640439153029    0.66400817204859
H           1.72633070721686   -0.13585708347455    0.80895171924763
H           2.03686302233438    1.26118144383067   -0.52152622551041
