    19
        -40.92453850
S          -0.66969402045528   -1.07606808025845   -0.84613250294387
O          -1.39478842194090    0.16685916087997   -1.08294471035805
O           0.71442248071548   -0.96104748343695   -1.29268280801899
O          -0.77485886874850   -1.52767100532027    0.52540681763209
O          -1.35109077261551   -2.18852106805781   -1.73667349758804
H          -1.27556247311602   -1.86886334835226   -2.63111775341505
O           1.63634363853878   -0.96171121348020    1.30652893024053
H           2.07969997941973   -1.10776188874207    0.46237273050836
H           0.73287920658469   -1.33574217175995    1.16040986554736
O           0.93834399260307    1.61903158994073   -1.19504401691588
H           0.03308239110957    1.83730031348033   -1.44606580237352
H           0.99588751390427    0.64314938293829   -1.35808451856243
O           0.92750112243635    1.45699640525744    1.31922451614167
H           1.01700121932218    1.66251857341223    0.29821057218440
H           1.32250322210307    0.49328649146736    1.42482716789104
O          -1.54123759251635    0.95375866451439    1.39101065617250
H          -0.10268351184020    1.34424393526690    1.46780318593004
H          -1.64859846836875    0.76092640429781    0.42610251185590
H          -1.63915062711105    0.08931531799364    1.80684864621436
