    19
        -40.92246915
S           0.00546917704979   -1.06534424375640   -0.10443586066059
O          -1.43827844162480   -1.08606102339121   -0.14401430761648
O           0.57566309100932   -0.84691614639944    1.19059854722553
O           0.55439858746984   -2.38680586740626   -0.68516178803574
O           0.51497311685569   -0.02604373154610   -1.09932690192645
H           0.47460835897344    0.99783256915449   -0.69702289812570
O           0.36958524030702    2.18963197047904   -0.03255094656175
H           1.06945664323252    2.10834106207503    0.65840838214972
H          -0.48078495328240    2.05357378809548    0.45219602528492
O          -1.65837530069862    1.16655688629689    1.32771706287748
H          -1.31175537511712    0.88673593327321    2.17858012034664
H          -1.80590072183447    0.35099316921800    0.81868990097766
O           2.01547587449570    1.32382722326407    1.85550454471531
H           2.94874906341695    1.13452664351351    1.74544140636746
H           1.54807530582223    0.47082491850639    1.77343533386605
O          -1.07861685221500   -1.95981076024339   -2.66324634244618
H          -1.63056415405855   -1.64751323455827   -1.92777509777803
H          -0.74226827065901   -1.17482881903866   -3.10460243771035
H           0.07008961086325   -2.48952032753469   -1.54243474295466
