    19
        -40.92217278
S          -0.00733749570967   -1.06822244480770   -0.87481574985531
O           0.08522996887528   -1.04035408633039   -2.30632790212038
O           1.13776593494711   -0.53677555847753   -0.15707035690991
O          -1.25857839810493   -0.49176072114119   -0.36598950957563
O          -0.06426545712295   -2.60848366997524   -0.44638522123443
H          -0.37776590358398   -3.06291272167587   -1.22266677965455
O           0.59144553596209   -1.02367886573777    2.35267903543902
H           0.98206512470970   -0.96071527266925    1.45084018164263
H           0.17758153857348   -1.88750140909386    2.40285662956528
O          -0.33196982120468    1.60376353043321   -2.03063269656931
H          -1.29056034946099    1.60025319693231   -1.97594203105415
H          -0.08426626466240    0.70052239348238   -2.29638928319584
O           0.93299971233571    2.10342830346173    0.26994221201260
H           1.44300910765129    1.28078543830402    0.16594267856162
H           0.50122449169460    2.20785361496894   -0.60653340288652
O          -0.84583851624047    0.95631737282622    1.59598526476377
H          -1.15732039356653    0.37189247166921    0.77292009972256
H          -0.32294725841954    0.27377085265923    2.13493689909853
H          -0.11047153670496    1.58181759519768    1.13664992223619
