    19
        -40.91893408
S           1.39088132671986    0.89592761588778   -0.52907528594360
O           1.10073738035216    2.28224663878917   -0.26404402064239
O           1.45901346866107    0.09858050078579    0.70494223520726
O           0.53159623165923    0.26353774445406   -1.51068046952438
O           2.85487087595953    0.85286940397573   -1.14190128071925
H           3.29109036996824    1.57869393652285   -0.70595327480681
O          -0.49884474123596   -2.10586284677142   -1.32875662007098
H           0.07629703315375   -2.72233531232398   -1.78560559262696
H          -0.14419297875161   -1.19919588341451   -1.52065714250094
O          -1.45493497720965    1.63537136379223   -0.13720769268800
H          -0.56778903934228    2.04567853877525   -0.08614267666650
H          -1.46004957935540    1.19230610439533   -0.99103358832027
O          -1.98387366621402   -0.05810601889787    1.79488351238241
H          -1.80175262236132    0.41053881793595    2.61177296386066
H          -1.87846229047979    0.60893577083455    1.06434526189244
O          -0.16533188392062   -1.69377527350321    1.15326596734488
H           0.60052653277368   -0.96147796296108    1.00163121491616
H          -0.96803024381796   -1.12039460551301    1.46996777831239
H          -0.38175118655868   -2.00353854276482    0.20024870059839
