    19
        -40.91904998
S           0.75856524357312    0.88399703202338   -0.06242297277182
O           0.88403318010030    0.56988182575642    1.32300980968711
O           1.41977892313453   -0.00282232910768   -0.98662847691464
O          -0.72889218257648    0.94237819379321   -0.45990539747089
O           1.25555780894741    2.32996123900488   -0.30939944288823
H           1.18731119467709    2.45810474765518   -1.28810690266412
O          -1.57974369009004   -2.23697888689931    1.10261086789500
H          -0.61285498147186   -2.31484698294366    0.93877973541544
H          -2.01612611006318   -2.61872188358305    0.33967515651390
O           0.80174469339848    1.86422549177409   -2.83203920182729
H           1.14141929203042    0.99522968265418   -2.56454106868907
H          -0.15174439856004    1.77178153121147   -2.90984137347487
O           1.05958166069174   -2.18444711478951    0.60450539816324
H           1.26103618487834   -1.56297756709208   -0.11330112184033
H           1.42463839000239   -1.77636199509161    1.39462378975458
O          -1.84619584194053    0.32260968097144    1.67708990264184
H          -1.05192832233041    0.47232564927431    2.20580038664042
H          -1.31132854625539    0.74625204492919    0.39146694298412
H          -1.89485248821762   -0.65959037958314    1.54862397880798
