    19
        -40.92246909
S          -0.85206704074785    0.63238567026238   -0.14178410686308
O          -0.21419225075781    1.17476554509252    1.01955946287134
O          -1.74146203291623   -0.47781219984822    0.10856265774300
O          -1.62375881255251    1.75507516683792   -0.86906687129355
O           0.18535613583912    0.21358774171086   -1.17997376989694
H           1.01238443042148   -0.36506368155945   -0.74090144822295
O           0.05293449652754   -1.75212066667388    1.67219402735688
H           0.11827709813467   -1.16359271306667    2.42839685099462
H          -0.73057660484779   -1.46130929767194    1.17451896695832
O           1.95853368353617   -1.04891143085703   -0.02643144835169
H           2.37849332180477   -0.33297337110762    0.50733943542358
H           1.38489588025272   -1.53733181874419    0.61295514032296
O           2.43612419596276    1.09136654394317    1.46138222074058
H           1.47040403647280    1.23270214531868    1.44337634737942
H           2.83646067693660    1.90843421855110    1.15957018864557
O          -2.45406464944874   -0.12515424548351   -2.46206351016295
H          -2.07703003165287    1.28788420785019   -1.61488057951608
H          -1.67052347722127   -0.42322308171257   -2.93263444488153
H          -2.47018904574828   -0.60870872284627   -1.62011911925700
