    19
        -40.92175620
S          -0.88881760132315   -0.45183184041178    0.33507022982583
O           0.39874232262833   -1.09618637175425    0.21134832329094
O          -0.72640306012561    1.04061242678353   -0.06957430270246
O          -1.93386984154533   -1.06299919098108   -0.42130216391336
O          -1.28637345083479   -0.33351283924930    1.80148005189790
H          -0.67201953499290    0.36460564045117    2.23692407937540
O          -0.24769937303779   -1.72617951929746   -2.41682593289294
H           0.45440055305818   -1.85310869974113   -1.76838967377708
H          -1.06400428743049   -1.77291478723328   -1.89290336902190
O           0.32575597232397    1.44285676407393    2.60773037800765
H           1.18581772457134    1.05001785617613    2.31298046390323
H           0.13270056874283    2.15189393778735    1.98756140094352
O           2.34258774183470    0.14475822929016    1.51777537136359
H           1.72149700901892   -0.35295156879968    0.94497063195670
H           2.84020639648850   -0.51019636940023    2.01110225924137
O          -0.44344031206340    0.89478790318254   -2.59773437827209
H          -1.28063941733157    1.06567715345520   -3.03597641027562
H          -0.58295746859377    1.08410185385957   -1.07348143940043
H          -0.27548397140545   -0.07943057820081   -2.69075548955802
