    19
        -40.91454138
S           0.09535435586004   -0.25761230141697    1.12196629038333
O           0.86390965028454    0.82361496011560    1.64847746445335
O          -1.30955797995638    0.22787936216525    0.78110620826183
O           0.66828952532473   -0.93402428508486   -0.02278001146713
O          -0.16749466451860   -1.32016833568606    2.22549889386742
H           0.54530467984451   -2.00308861030674    2.15981656129759
O           0.10982570913135    2.80074020280462   -0.01298235084408
H           0.51804803263173    2.16492886767427    0.60225493942283
H          -0.64806936441094    3.16319425838709    0.45060007714676
O           1.73211004867370   -2.90926787813051    1.41074464118964
H           1.65268458845377   -2.29294185721184    0.66133517609232
H           1.47854757376127   -3.77878982513647    1.09071918950617
O          -0.52596490255944    1.74890636683424   -2.40717463458046
H           0.28977553862965    1.75080837020577   -2.91066487580173
H          -0.31940521560205    2.19482176035077   -1.55702621837412
O          -1.49951495180037   -0.55937338414507   -1.57417292668347
H          -0.64935781986706   -1.00843830383527   -1.45734782268358
H          -1.55380369763801   -0.10475981672149   -0.18258702815029
H          -1.28068109606618    0.29357044936217   -2.02778358311420
