    19
        -40.91892051
S           0.16483344036644   -0.37759469237873    1.10035888312111
O           0.80248363135135    0.94100327647627    0.62260934390003
O          -1.25809583239996   -0.18768801001566    1.17467983356426
O           0.62160530237439   -1.46225994645170    0.28563012510928
O           0.73205081773387   -0.54773659280943    2.53130664478825
H           0.34568360652148    0.20473117113517    3.04508860326040
O          -1.59485705639394   -1.36207324302334   -1.30972329825863
H          -0.83069179238610   -1.80164669752812   -0.91172916746558
H          -1.98571412322885   -0.87326880975235   -0.57469830145039
O          -0.64313140612254    1.58466447188086    3.11620464217539
H          -0.23152658728654    2.29942713660999    2.62244931860906
H          -1.26767800998964    1.15693242151955    2.50892325944795
O          -0.22512672613478    0.25391260132965   -2.94870804051759
H          -0.82838131172719   -0.30135774423392   -2.40343336621568
H          -0.28831773677208   -0.07777241436609   -3.84602971625540
O           1.96426907197960    0.20076890059143   -1.46333313233775
H           1.35865536357117    0.76111654250943   -0.24104740111292
H           1.93396730802465   -0.72512989653856   -1.19020796392289
H           1.22997203056646    0.31397152493638   -2.11834024660427
