    19
        -40.91117823
S          -0.37712890322055   -1.67021793673386    0.53174482178324
O          -0.40083215436643   -1.23874959599944   -0.93949896927679
O           0.62460106932793   -0.90457277212549    1.22830031459847
O          -1.68753494981176   -1.68858842881714    1.07024144851860
O           0.15865593941714   -3.14443482847890    0.43589310015893
H           1.10765813227838   -3.12512345403664    0.32044129254174
O           1.26005314749326    2.63083436600752   -0.35618477571375
H           1.89157634603123    3.13151629340078    0.16233218811549
H           1.70172008195592    1.79075353726077   -0.60044282299862
O          -0.82165386873791    1.47523856409408    0.90224111377353
H          -0.33236012359878    0.74326175008883    1.29830032495555
H          -0.15217379269727    2.03014174689297    0.44288683269209
O           2.13214201682568    0.10141049658477   -0.78388190056249
H           1.73515308346478   -0.23181279803855    0.03969979756851
H           1.56078161690920   -0.21259935560811   -1.49078889302692
O          -2.34703655938358    0.26893623034599   -0.80539751037008
H          -1.25590872194463   -0.59660291073935   -1.03232542214654
H          -2.91642631787469   -0.26495870369601   -0.23890997486223
H          -1.88128604205898    0.90556779965052   -0.18465097574675
