    19
        -40.92246888
S           0.85997763425614   -0.38137540222880   -0.51091129321675
O           1.09623013295169    1.02953779358460   -0.45303894061833
O           0.03519367876759   -0.82107445094435   -1.61217896954212
O           2.21436202360850   -1.12210562139285   -0.55561389685042
O           0.24993595513303   -0.87958159217511    0.79637439521427
H          -0.57701276075841   -0.24221913676316    1.14673346222849
O          -1.82914877512893    1.07973318701238   -1.16570894816017
H          -1.35179020491173    1.88664182162187   -1.37456564224175
H          -1.28421272788597    0.35089491264685   -1.50908500773526
O           0.21952302410444    2.62377676417844    1.52556692887085
H           0.90969519144163    2.72441906937801    2.18320503680609
H           0.63247828828120    2.18973757890368    0.75481404142263
O          -1.56062660936681    0.66345871614523    1.43531157614951
H          -1.04258459610473    1.47171517054639    1.66446020596223
H          -1.91617023447099    0.83920998790430    0.53026073864534
O           0.79299500859420   -3.28224443938984   -0.83141966451383
H           0.26552320221359   -2.67195601194884   -1.37206699042541
H           1.96194737293267   -2.07426235325025   -0.65348207023999
H           0.32368439632710   -3.38430599383353    0.00134504823744
