    19
        -40.92044962
S          -0.57983003622026   -1.14915572488434    0.94867508396744
O          -0.64369411958751   -0.05351230323072    1.89712861388291
O          -1.33495534453872   -0.85733269512587   -0.26744266130260
O           0.77893160583084   -1.56053121269459    0.64009302786375
O          -1.28342279380542   -2.38202801630496    1.64948753385600
H          -1.91762771971772   -1.97143645196434    2.22963881318606
O           1.66339046616072    0.93850991901597    1.27815321863231
H           2.06997741031164    0.06504518641467    1.20865217598965
H           0.76910450194725    0.73803126573597    1.65691430978337
O           1.06307840975082    1.52676084800921   -1.08376998247937
H           1.39352537060587    1.38518108758050   -0.08755486509501
H           0.06237213333682    1.74491269372520   -0.99596819137734
O          -1.44522797777873    1.66954167486917   -0.76866012626864
H          -2.05989637688987    1.78716159682471   -1.49546775932454
H          -1.51536384639680    0.71843986276587   -0.48415681363173
O           0.90752786158768   -0.87134112257766   -1.84316662417391
H           1.08525818251119    0.56639263768900   -1.50609922269098
H           1.01453796027758   -1.27919131249036   -0.94534354047663
H          -0.02768568741479   -1.01544793335825   -2.03111299035469
