    19
        -40.92246925
S          -0.17985785090309   -1.04986016836179    0.10545894873155
O           0.04154800381773   -1.24703486124554   -1.30824290086380
O          -1.43562796551735   -0.45323561666273    0.44736782305321
O          -0.04188634467223   -2.40111334042648    0.84033877707252
O           0.97703403805190   -0.23720832387194    0.68090757819121
H           0.86559134647868    0.84218988392846    0.49812776809713
O          -0.74666720257080    1.25848531770195   -1.93199599497625
H          -0.45433391557186    0.33085753837125   -1.93345781033589
H          -1.67920291036361    1.24031515886288   -1.70280207406576
O          -1.69181490211603    1.96637107210466    1.59085840051460
H          -1.77509549903974    1.07134245797739    1.21034070731089
H          -1.75946550471989    1.86542106239471    2.54173099954646
O           0.55596303742465    2.14157166035638    0.19746525426815
H           0.16818545340648    2.03226741850923   -0.70482640988067
H          -0.21750421232583    2.31549677767000    0.78496224611429
O           2.17454220475562   -2.67014576136715   -0.49223527806149
H           0.81416522462457   -2.76850002110020    0.50513367938018
H           1.62567761015706   -2.25148592287601   -1.17521033313691
H           2.75874938908358   -1.98573433196725   -0.15392137095572
