    19
        -40.92174068
S          -0.04780153489333    0.82909396509822    0.33398027363305
O          -1.18525764125369   -0.13643318947745    0.61125610631744
O           1.12144911202694    0.45587874511949    1.10178141733587
O           0.17896484360270    0.94992511598965   -1.07634583142873
O          -0.58067069128097    2.17535706246031    0.87062325122521
H          -0.46300929998705    2.13960994088337    1.85509665071410
O          -1.06522167662340   -0.61415913126157   -2.87901678319298
H          -1.88482699161200   -0.19503442409660   -3.14635250514820
H          -0.57018092808100    0.05035013360321   -2.36326860782034
O           0.23956602179770    1.67182220099386    3.28168241271214
H           0.87960454461330    2.27795702352023    3.66337266264342
H           0.74226043432970    1.02433443531074    2.75345990855581
O           1.75640994816872   -1.50877315751478   -0.64852146767758
H           1.89703736178811   -0.98801043362652   -1.44361623549018
H           1.72719389240649   -0.87127073293643    0.08385868999005
O          -0.81363199042331   -2.17184224821685   -0.73862053709826
H           0.17145481818850   -2.19760927067540   -0.69608738536605
H          -1.08361484543873   -1.07503288580623    0.07064894113487
H          -1.01972537735257   -1.81616314934482   -1.63393097104857
