    19
        -40.89942544
S           1.40377010924900   -1.46910885345526   -2.28149247923530
O           0.93648827030592   -0.35325623412165   -1.48872975068286
O           1.40653112942097   -2.73102329495732   -1.57685998567613
O           0.66557951860019   -1.55500607786379   -3.55756815532544
O           2.89869805792182   -1.15303621165938   -2.68275871450509
H           3.23168767913346   -1.98140193815383   -3.01761637382296
O          -0.30927692105451    5.75581046702561   11.57945733787358
H           0.63493669530336    5.66127355703968   11.43900264354058
H          -0.56178589953036    6.61732366952585   11.24156073318176
O          -1.04129773892287   -2.41966135589280   -0.72361494690509
H          -0.12737455703995   -2.70951684908995   -0.96134733749858
H          -0.92479484050886   -1.71390289028278   -0.08123940408520
O          -1.19412449082902    0.98067196366961   -2.18202580913006
H          -0.34480250066767    0.61773559194884   -1.82586388322670
H          -0.95269663256612    1.63644968921876   -2.83895664453060
O          -1.70093589671789   -1.38956814059058   -2.94697988178924
H          -1.61844814567160   -1.88187045408533   -2.04509501978321
H          -1.70507460057178   -0.39505585841186   -2.70289327930332
H          -0.69707922431489   -1.51685679060871   -3.34697905617741
