    19
        -40.91865339
S           0.39771734791722    0.69660962680094    0.60118870709973
O          -0.11218892015366   -0.22966452660741    1.58511969542445
O           1.25245033489889   -0.08715612300729   -0.39692511548113
O          -0.57671375975131    1.47579495040846   -0.09447555719976
O           1.39338435938286    1.65132392599109    1.30671327420123
H           1.87219806243865    1.11540657195565    1.99030799502395
O          -2.25626572549756   -0.78641556570227   -0.01231816249831
H          -2.47997326348323    0.14401858675523   -0.10947954205371
H          -1.56657818170609   -0.80453187843915    0.66864831201856
O           2.07983506310164   -0.11889416685734    3.08587191263112
H           1.26802493253644   -0.50783196617715    2.71320219765263
H           1.89085438914180    0.09711965231536    4.00251742355292
O          -1.32390499574425   -1.37592749265486   -2.47321464518948
H          -1.75115664758097   -1.23056925374944   -1.60074280989075
H          -0.90704140927089   -2.23799282727011   -2.42981720293886
O           0.32423306337028    0.68298213211160   -2.57903511571704
H          -0.20241807063511    1.37781921134500   -2.16302682433855
H           0.99711394967113    0.21147309487354   -1.36684652256358
H          -0.29957053864120   -0.07356396210017   -2.72768799972394
