    19
        -40.91520686
S          -0.69531319197648    0.50946993911639   -0.90613767731345
O          -0.98785503488416    1.33796156036919    0.33700810510826
O           0.14169894181154    1.24231282567993   -1.79885548853662
O          -0.18811539364520   -0.79150337499165   -0.51304803981792
O          -2.10490569259702    0.30237884369648   -1.52739971426926
H          -2.13193468969082   -0.59140552856589   -1.95163628004592
O          -1.70205442281688   -2.18821643940651   -2.19363310956035
H          -2.24485558993820   -2.84636924648690   -1.75227725817577
H          -0.94455028769220   -2.00132170582390   -1.61082277980231
O           2.32655822049310    0.81725647392198   -0.28316564543889
H           2.52283021820173   -0.07919876526971   -0.56380584495906
H           1.63606977746038    1.13702915554531   -0.88900078556950
O           1.82504569431989    0.90126507924093    2.36827291875869
H           1.78216216298959    1.82666052592538    2.61530438222428
H           2.08850292374320    0.88475306395917    1.42326202720823
O          -0.50293219302007   -0.29994994806578    2.15280593182512
H          -0.28801270281621   -0.97016250608726    1.48968028219109
H           0.36965545657633    0.08784446151124    2.42534847307976
H          -0.90199418656622    0.72119557596649    1.17810052307643
