    19
        -40.92453827
S          -0.86626162994089   -0.16408052135025    1.24308759869481
O          -1.50706046952571   -0.91912974104352    0.17248157726793
O           0.45062768898558   -0.71302983251706    1.54742768848914
O          -0.82560583728566    1.25769878574393    0.97277247339184
O          -1.75431923919432   -0.34822291502564    2.53622212857100
H          -1.78469100622469   -1.28931868434917    2.68206617484050
O           1.70828750821259    1.48181753025856    0.44790688407743
H           2.02153154595203    0.78485892547627    1.03662233247304
H           0.76459754731445    1.60365377514732    0.71628865308367
O           1.21815759920872    0.37118851021506   -1.76113206239334
H           1.53951364526540    0.90143348764874   -0.91788557197792
H           0.21149984063201    0.63343820044859   -1.87738746023296
O          -1.25303676904900    0.86519738674594   -1.70217085501315
H          -1.36804283089372    1.65397081863096   -1.15959092159057
H          -1.50479143753434    0.12628648029255   -1.09370019348383
O           0.90652851138377   -1.89765798914438   -0.71176497915309
H           1.18743076615509   -0.62479318420019   -1.44421889051802
H           0.85777069271855   -1.56999431548854    0.22243059224810
H          -0.00213611617373   -2.15331675746378   -0.90945515879838
