    19
        -40.91256595
S          -0.35955072272531   -1.41129937866132   -0.36373675421811
O          -0.09557944872749   -0.29764171462640   -1.37384118758293
O           0.43810122681686   -1.22355782857321    0.79951330520643
O          -1.76945604866510   -1.58723291010417   -0.21027846892792
O           0.19660638878898   -2.69828989524490   -1.10354674095950
H          -0.51192843567991   -3.03594460607077   -1.64689754083311
O           1.73540873011761    1.21725848236532    1.21344584193835
H           0.98853963868968    1.78855285603634    0.92516754850153
H           1.32029403706092    0.41212201794283    1.55117472300521
O          -2.37774850056687    0.61465072462081    1.24319301501739
H          -2.23374647246408   -0.22840800919955    0.78274514439788
H          -3.32398500403497    0.70335546154575    1.37302046443767
O          -0.49233535588511    2.23636325113486    0.12232241322392
H          -0.49350376092975    1.80275826595095   -0.73557416223097
H          -1.19915231098756    1.80649287250227    0.63608372816159
O           2.31810390603306    0.09998627732017   -1.01242394419398
H           2.23092259512135    0.64154302306763   -0.15216100774617
H           2.67538826645346   -0.75128369756943   -0.74560496438786
H           0.95362127165027   -0.08942518319797   -1.30260142231619
