    19
        -40.90976479
S          -0.57611848722493    0.20625964619947    1.85953756823123
O          -1.56264234644370    0.93472460507466    1.08239865850339
O          -0.57986001102499   -1.21533356691153    1.56912657767437
O           0.76291603312445    0.78502293146732    1.73472033916380
O          -0.96732442726567    0.38248829855708    3.37731633363154
H          -1.88181555200225    0.11698317123965    3.39840537804435
O           0.89829916483076   -1.89385378879357   -0.42737799736847
H           1.51979269681972   -2.55670793056851   -0.12096647975579
H           0.27463993113946   -1.72133239348937    0.33122104365141
O           0.12663013393968   -0.68928456081994   -2.91902799176466
H           0.13418797726392   -1.40610780136756   -2.27759542508066
H          -0.51797783849791   -0.04584779725402   -2.60942780814389
O          -0.71388736512552    1.51496701226939   -1.27972422346197
H          -1.13620572874178    1.29654611205546   -0.40353008291474
H          -0.84537205024382    2.45489132140326   -1.41686034788052
O           1.55435152735470    0.56755036532059   -0.58577204242380
H           0.75347800110035    0.99021013858156   -1.06089091222682
H           1.32552661905331    0.72103803915720    0.44808725499549
H           1.43138172194620   -0.44221381206281   -0.69963984288530
