    19
        -40.91256612
S          -0.56279440868451    1.00140054510292   -0.96718730215595
O           0.44402109864182    1.45826195680840   -0.07163905003561
O          -0.37063230374931   -0.48228978527848   -1.27020988805647
O          -1.93342023934329    1.24489857330077   -0.64415046170893
O          -0.28175208148739    1.68707270505113   -2.36866911463995
H          -1.10666924397263    1.68855697556562   -2.84900492787773
O          -2.04034086366721    0.16637637643961    1.83698419504606
H          -2.93133121355273    0.17917029392755    2.19204277630559
H          -2.06983366508532    0.62984807617843    0.98394623174605
O           2.03942531661105   -0.39250409241939    1.28342640046103
H           1.60932146993921    0.47125640262892    1.22320089324128
H           1.31698043849935   -1.02361423930091    1.50026457093141
O          -0.22858472262917   -1.82098388908835    1.37781804783949
H          -0.87324760886626   -1.17737935247024    1.72164286593589
H          -0.42736434020895   -1.91415939715204    0.44202051989256
O           2.09664874302844   -0.64943017122652   -1.26065261228586
H           2.40863320727496    0.20752154481094   -1.56360197351818
H           2.22108376525952   -0.64359682606120   -0.24803671665534
H           0.68985666253544   -0.63040568714198   -1.31819445440362
