    19
        -40.91256628
S           0.56022390237475    0.81202308434561   -1.13282970763565
O          -0.91506937633382    0.45843173236426   -0.96327574985912
O           1.18541595518086    0.94972625023709    0.13783054826785
O           1.14877172678089   -0.06113775735234   -2.09892340018647
O           0.50428218155125    2.25831302351502   -1.78002461558701
H           0.44175241645623    2.13936752404760   -2.72518166411054
O          -0.12979025414549    0.06396564953725    2.43826870434722
H          -0.47187519446815   -0.77444577449244    2.05461815369701
H           0.67964816622678    0.25452448170120    1.94513064766558
O          -0.97228400425396   -1.91090154156462    0.83032086992172
H          -0.14661647293206   -2.21901859808705    0.41686833347983
H          -1.43357626962551   -1.41265972189482    0.14997888690193
O           1.28421910111649   -2.34095618070450   -0.64368194512403
H           1.32913916606847   -1.55366537331127   -1.21052923428766
H           1.61438362119143   -3.07731448019386   -1.16214724394464
O          -1.47661953446790    1.75317361568271    1.06820264967875
H          -0.90441749492405    2.52470653138919    1.04121501865392
H          -1.24675577058578    1.01585608775526   -0.11093506347008
H          -1.05083186514898    1.12001144703573    1.74509482167952
