    19
        -40.92453845
S           0.65884258457292    0.23573906827461    1.35393876948975
O           0.93437823535704   -1.14261631112329    0.96346141421660
O           1.26601509226856    1.17133952948905    0.41426997917527
O          -0.75376814479338    0.48477601828075    1.55094032431988
O           1.35301026735507    0.46690468173470    2.75368717637459
H           2.27967627822641    0.30772870581788    2.59902538669759
O          -1.06168103788538   -0.30696992960021   -1.87131838323108
H          -0.04153276746133   -0.53369541443222   -1.89741534881444
H          -1.09551317426018    0.67875634990889   -1.51982323881617
O          -0.92216139435417    1.94877553130677   -0.75554515447249
H          -1.50727532784959    1.91867653543300    0.01033649487161
H          -0.02098861726060    1.82922910413669   -0.36396729272319
O           1.39923875864478   -0.74460363730640   -1.55494893818319
H           1.32599982905453   -1.05384828107737   -0.61616166110509
H           1.81067775574939    0.12407642317718   -1.47576536617748
O          -1.69533577378632   -1.54407814198566    0.23130643576666
H          -1.43571820029024   -0.88694134401796   -1.08432652282252
H          -0.97421352995147   -2.15894430699060    0.41087951479785
H          -1.51965083332782   -0.79430458102435    0.85142643059297
