    19
        -40.91416427
S           1.20649160520153    1.12120107779139    0.43563496275249
O           1.44103901044797    1.69823880872987   -0.84647429926963
O          -0.09896780577386    1.64852918363804    1.01670720046863
O           1.25972982618297   -0.30456804256768    0.56171367294556
O           2.30142071099419    1.69676253052460    1.41839924497103
H           2.51497454487122    2.58163273642875    1.12870869899953
O          -0.61677014328190    0.18325351232530   -1.87923275522562
H          -0.07479526110987   -0.60701964415508   -2.06744266936104
H           0.01935750095679    0.88544976039468   -1.69380901908791
O           1.00832653247259   -1.98331806030058   -1.60043185511112
H           1.28367726666379   -1.47592926864270   -0.82003811612245
H           0.51736416948312   -2.74058537312958   -1.27469339506833
O          -2.36367499869469   -0.81945186431793   -0.14202199509303
H          -1.74278779035514   -0.44368539918707   -0.81191381036126
H          -3.19342112394481   -0.35526742720150   -0.26277906881850
O          -1.03225481486923   -0.39655606081938    2.06162930667017
H          -1.64488087244198   -0.64452153702354    1.31403268801596
H          -0.22541019377208   -0.90552784098739    1.91135869742420
H          -0.55941816230553    0.86136289821952    1.55065253090321
