    19
        -40.92453849
S           0.93818540794023   -0.10973715007884    1.19611306886649
O           1.44723735144421    0.94978002110955    0.33218901180462
O          -0.37987000527691    0.23485971241363    1.71651075502960
O           0.95961633398428   -1.40738409831585    0.55436415413521
O           1.91535738450293   -0.20635744085611    2.43334094269297
H           1.87955826708253    0.65319919448586    2.84298896762646
O          -0.81338661445043    2.04257283587100   -0.31005227338893
H           0.12481018184675    1.79534356784020   -0.10778549073531
H          -1.27251278396589    1.88959711057277    0.52418694507430
O          -1.30634020540289    0.02520708375549   -1.73651769402377
H          -1.61422496358521   -0.63258015584642   -0.98239859417843
H          -1.20074028373744    0.94296366026006   -1.24708885010914
O          -1.76346875157187   -1.42689379055094    0.27234722863484
H          -1.38544074971881   -0.81130323198998    0.94901012554531
H          -1.12778192680584   -2.15147521046685    0.24537254698938
O           1.12397346110008   -0.61898301131492   -1.91462271712723
H           1.17083814467178   -1.09332363412181   -1.04838225582204
H          -0.32552829954857   -0.26268993978557   -1.96168421624847
H           1.62971804151357    0.18720446702486   -1.75789166476266
