    19
        -40.91647031
S           0.73795903967005    0.49864946921281   -0.82623485856340
O          -0.78237261243528    0.48359059260992   -0.58555206429475
O           1.37753318949763    0.77918586726538    0.43932661648331
O           1.13332434035264   -0.68630133159216   -1.50610165368095
O           0.95985117607395    1.72002757882413   -1.75493293602173
H           0.95054015056222    2.52750955386345   -1.18140713402703
O          -1.04403143709156   -2.86525788521402    0.89874081053281
H          -1.72263481005729   -3.26720970918382    1.44354536817219
H          -0.71153334976892   -2.08625626475307    1.39517347780310
O          -0.36392667689720   -0.52971853812327    2.06283871609630
H          -1.09673021832215    0.04811280995393    1.83318777511303
H           0.41406099144193   -0.13729636891704    1.63302469022253
O           1.16546995368620    3.40977880297764    0.22004002835683
H           1.29407876094640    2.54580667468963    0.65366268422845
H           1.99933535218440    3.88177662275994    0.28486277148826
O          -1.35592712036297   -1.76526123180533   -1.48824397142996
H          -1.32464485414781   -2.29830043096504   -0.65518972297311
H          -1.15726173656380   -0.40959316699846   -0.99048365384397
H          -0.47309014874850   -1.84924303468405   -1.87625695363407
