    19
        -40.92453697
S          -0.74745756464053   -1.00201468220716   -0.87135621636643
O           0.67413080102808   -1.29996526773437   -1.00103428817951
O          -1.19377899837705   -1.19463041678430    0.50434341269979
O          -1.08893228830188    0.30656595055957   -1.38839683504086
O          -1.52748189043282   -2.05077584517163   -1.75831275055812
H          -1.31731296983971   -2.89919109222848   -1.37899813002444
O          -1.49047542224055    1.52381262442629    0.86974454471932
H          -1.81842353504747    0.76434714641029    1.36582076405856
H          -1.48532922092890    1.20364468898497   -0.06571720632740
O           1.09693060300871   -0.93249777372292    1.68938278653678
H           0.17202943993839   -1.13037932626474    1.39386438098533
H           1.64349123266112   -1.32595093194998    0.99890126679274
O           1.01283603415840    1.53020772644990    1.16445690831521
H           1.14249970095363    0.55152590162397    1.50867212637183
H          -0.02555371242721    1.65660489463793    1.12884215960136
O           1.51480172973248    1.14522515165361   -1.27535910700076
H           0.76693936112475    1.49457650797380   -1.77381602634052
H           1.31458315550094    1.49076224837417    0.16260766829654
H           1.35650353398463    0.16813249493533   -1.27364545847301
