    19
        -40.92267739
S           0.43248591811318   -0.39864996152278   -0.88714245520126
O           1.29929384386599    0.76788498654829   -0.96522336995042
O           0.51540256899401   -0.99454450083011    0.46979337146913
O          -0.94050667916878   -0.10575399046404   -1.23017036977517
O           0.95610372861944   -1.48389184959801   -1.86839435729306
H           1.89262078200329   -1.59778208313348   -1.59208161441079
O           3.17464001592088   -1.11406686886453   -0.51858172826049
H           2.88920880334056   -0.19485860115025   -0.64373574196265
H           2.80312738695691   -1.38627741068549    0.32685669494495
O          -0.30821261904895    2.34049805517303    0.38152872323891
H           0.40264576386885    1.89529901082667   -0.13855304296922
H          -1.02681218809945    2.48322109818283   -0.24075576226915
O          -2.90493717689555   -0.30212088015819    0.47601545873510
H          -2.29229799150435   -0.23542641416827   -0.29743766792358
H          -3.21449045989554   -1.20967603995016    0.49782584092327
O          -0.91760965632500    0.39516528828190    1.89760066263901
H          -1.82710623474507    0.12613340771633    1.50981365280749
H          -0.23856003658972   -0.27841811852366    1.37929498263726
H          -0.69499576941019    1.29326487231931    1.44334674262514
