    19
        -40.91821037
S           1.88539334949323    0.55188466837600   -0.29169184701835
O           1.62599577008589   -0.81342729383754   -0.72364381325897
O           0.98190984309488    1.48960388152212   -0.98037828364200
O           1.86869834679213    0.71248570379066    1.13920216766935
O           3.33207331292822    0.92369563111205   -0.79898213709091
H           3.24651960085751    0.83942420787079   -1.74371947216703
O          -2.37065903795822   -0.56792294948597   -1.05579012722068
H          -1.70240472612733   -1.17649239719716   -0.66913114283016
H          -3.22391836380278   -0.82389315113227   -0.70050842957270
O          -0.46866685466752   -1.89980513962364    0.27653484321221
H           0.35737044599026   -1.50103259831104   -0.12529537971237
H          -0.30669838445653   -2.84430347744403    0.30418383262171
O          -1.28840436969046    1.53676052853296   -0.03072077474184
H          -0.31777419537383    1.60733347292856   -0.48428380147138
H          -1.78202067800223    0.82017064052023   -0.54978574355485
O          -0.54941945690421    0.24740306319500    1.98684569190545
H          -1.07349995367972    1.09274726600806    0.90285957520284
H          -0.62373914231770   -0.66143397143340    1.64786224498063
H           0.40924449350619    0.46680189488143    1.89644259674960
