    19
        -40.91893394
S           1.02423182040957   -0.05722227612397    1.40313714541045
O           1.26586587856319   -0.97860063221245    0.28222362705355
O           1.86122339931078    1.11363482414793    1.33314881670139
O          -0.39198059198086    0.20729480465386    1.56409161178155
O           1.46899383803696   -0.84980467477632    2.70466378851879
H           2.40131856520730   -0.66339215213896    2.76110571123217
O           0.11647568018533    2.15925327316669   -0.34854361556128
H          -0.63959990799747    2.02022686922722    0.22955274039314
H           0.88770496397127    1.91483861227914    0.20237120150624
O          -0.11975641660764    0.76837127406636   -2.56029616149242
H          -0.06701816362762    1.37294551677963   -1.77212181357246
H           0.73143836886303    0.82758587401514   -2.99859455683023
O          -2.31919563503608   -0.98457816577887    0.30916521102826
H          -1.67239532452117   -0.47657006882939    0.86415085431008
H          -2.64285654146560   -1.70010990581586    0.85945601096791
O          -0.48377556556849   -1.44041697046534   -1.38393243660721
H          -1.32998363558920   -1.32603635607799   -0.81686525109405
H          -0.39587761462801   -0.58609853208342   -1.96315693555710
H           0.30518688242546   -1.32132131408651   -0.66955593818288
