    19
        -40.91439925
S          -0.09624229882241   -1.32099660174364   -1.03985205450553
O           0.36861682520714   -2.47422423191694   -0.32703489545248
O          -1.28586334145338   -0.69753569693593   -0.42779484720996
O           0.90780517741869   -0.30187222021318   -1.31300849109307
O          -0.57733501582928   -1.82113683533089   -2.46901560325680
H          -0.90025730071686   -2.70999534503639   -2.34641338456018
O           1.95763302824486   -0.98872979824924    1.25459877244571
H           1.51204177373984   -1.74129434200322    0.82957384749580
H           2.30812739240500   -0.46770357659992    0.52644814626129
O          -0.32716004650675    0.19997870263515    1.97839267040378
H           0.56534995263038   -0.20996440258772    1.95004584002122
H          -0.83613518415066   -0.26158805447864    1.29193109459002
O          -0.20617395456631    2.57502014476457    1.01510668966155
H          -0.89650111147598    3.10361119718078    1.42045210736011
H          -0.19214380472214    1.68979295783541    1.50770622525847
O          -0.71419730736238    1.56384026748635   -1.20998644384101
H          -1.23067096050522    0.71689316007609   -0.89100167415299
H          -0.49592514649296    2.10273734090175   -0.31445545591108
H           0.13903133295601    1.04316732419216   -1.43569256351349
