    19
        -40.91520707
S           1.18330170229099   -0.21392879548446   -0.34079902068763
O           0.72046190467531   -1.50336495002611    0.32263825647388
O           1.24700973530531   -0.38434401872229   -1.75554144233300
O           0.35488814723488    0.88792387429771    0.11081612948223
O           2.60752141005797   -0.01019638822613    0.24762230499938
H           2.76942773602805    0.96125516360439    0.34591554053096
O          -1.42924301454783   -0.25237667447770   -2.01773168184841
H          -0.47189873615274   -0.40961180489701   -2.08847282169154
H          -1.53367291601859    0.70078527750291   -1.98118331718095
O          -2.76400429315662   -1.45247558586198   -0.00140638407032
H          -2.34856566309476   -1.02209038469787   -0.77911750503679
H          -2.75654523224661   -2.39365836722238   -0.18390261708359
O           2.36608848968852    2.57029021413390    0.55043005463711
H           2.38760568127550    2.90213477999883    1.45158145794518
H           1.45038815864740    2.29399929870784    0.36714106606040
O          -1.06682504917306   -0.66567382353743    1.84470296262722
H          -0.89606537906417    0.23778198234352    1.54504919480665
H          -1.83654811115681   -0.98017488223351    1.30177350534405
H           0.01667540935965   -1.26627491520807    1.06048430706446
