    19
        -40.92267745
S           0.01534057801855   -0.20625905677535    1.04422380754683
O          -0.06937429696635   -1.21149899690041   -0.04461396522488
O           1.36595733524096    0.33145428660422    1.11266259344945
O          -0.99139781974548    0.81602857176509    0.87082507504216
O          -0.29198933195042   -0.96989320828709    2.36239513968932
H           0.44785405587610   -1.61456636632068    2.42125637331470
O          -2.48574765734082    0.99403997112560   -1.26028826879480
H          -3.24180835176467    0.41154783104692   -1.16491600322616
H          -2.04854101079734    1.03030832925838   -0.37383023235841
O           1.10520909122442    1.87505440596887   -0.99016516073872
H           0.51571084021541    2.56331018754183   -0.66958748537520
H           1.36990061143399    1.36410563475942   -0.18839053339634
O           1.90914376634748   -2.23906261307184    1.71053988223189
H           1.56131562524910   -2.57694067479394    0.87886688774136
H           2.17433079287138   -1.32348828388349    1.52772199730953
O          -0.28151556696208    0.07396323258236   -2.12502503455273
H          -0.16883117672182   -0.60414216706743   -1.28298550151830
H          -1.22816093665968    0.44077033302116   -1.98248349391939
H           0.34260344243534    0.84526857342826   -1.84620606721930
