    19
        -40.92079050
S           0.24454971971193    1.02212950129838   -1.05092018202747
O          -0.05115693536489    1.57904609166745    0.27066612616379
O           0.86311103132438   -0.29167343869707   -0.94005067408100
O          -0.89023154797367    1.06824689438933   -1.93633331951309
O           1.36456986846557    1.95207393407776   -1.67203109878925
H           0.90629944879864    2.77093902411624   -1.83333335684565
O           2.49241223810548   -0.60207396272791    1.09161177962760
H           2.05336917742969   -0.44005398044300    0.22327112433003
H           2.85213867229988   -1.49061277973448    1.05433576457931
O          -2.71866728879228   -0.26675211108805   -0.57308124528844
H          -3.39069168508519   -0.56073992999416   -1.19106570767633
H          -2.10875223680808    0.30731354527724   -1.08530806838842
O          -0.82835534436283   -1.73427350259361    0.53118415146116
H          -1.68036732273708   -1.33394337555362    0.23755864936181
H          -0.19282963965903   -1.46512168173963   -0.16269852051703
O           0.19414233132879   -0.08069234940700    2.09055686977891
H           1.17393780443616   -0.29620454501234    1.93693024979936
H           0.04174987916412    0.72376726075660    1.42676017621898
H          -0.32522818028194   -0.86137457459113    1.58194729180547
