    19
        -40.92122935
S          -0.72679200052994    0.62282598767064   -0.60754748691240
O           0.03181904194102   -0.52503910195339   -1.04882001758694
O          -0.43981249120753    0.82914015248278    0.90533611587692
O          -0.46560962346239    1.82476329045056   -1.33275366293957
O          -2.21803850055634    0.31412280957310   -0.61890037993007
H          -2.40386803118565   -0.51179071736363   -0.04564558527201
O           2.13148249704515    1.21262833477520   -1.67641773919305
H           1.27477149742941    1.66034375718817   -1.78822883376431
H           1.94489442072380    0.28732825554878   -1.86745202702877
O           0.06780623615579   -2.13460153022012    1.05989651222824
H           0.46565086038825   -1.59238697860189    1.74474691360741
H           0.20537553008590   -1.65519162302295    0.21768911724747
O          -2.52552852528948   -1.80397991575924    0.75463325021354
H          -1.58874217046275   -2.02084406883071    1.00021889934256
H          -2.82855369495606   -2.51539464478605    0.18522170065792
O           2.05430963245807    1.37135414941691    0.94446207996725
H           2.23228243378511    2.28312335413607    1.18683799565511
H           0.54029077039380    1.05432122586437    1.01545536126624
H           2.24826212713568    1.29927725344669   -0.02873220344310
