    19
        -40.92453843
S          -0.96539086420405   -0.31402972987385   -1.13659618560260
O           0.17607540036708    0.39074634696757   -1.70981881725392
O          -0.55153548226463   -1.58911947001886   -0.56231951059812
O          -1.70801666574873    0.50202981314896   -0.19922421437588
O          -1.95243343900522   -0.63910380865724   -2.32605946086522
H          -1.44781744792796   -1.18371725576973   -2.92326149628242
O           2.06000032054301   -0.75257604154236   -0.34606458756883
H           1.65833306906288   -1.62660743254239   -0.27594425152944
H           1.47728796562873   -0.28004293596731   -0.99380289475067
O           1.27542915097756    0.52304913962075    1.67976862990179
H           1.74707260406691   -0.00809591067873    0.91259860773626
H           0.45605295921029   -0.07514064022039    1.93825668068996
O          -0.77125341478808   -0.92458440693327    1.94187601305362
H          -1.53743881939216   -0.34415574503065    1.86634141818237
H          -0.72043213353660   -1.35911109362412    1.05398623557597
O           0.11610592233625    2.28295542815583    0.29690922791442
H           0.86117205481151    1.35639700077918    1.20094011511975
H           0.54315549064732    2.27100636897207   -0.56794535587383
H          -0.71636666039222    1.77010035641100    0.15035985657360
