    19
        -40.91335357
S          -1.51096912123130    1.09207958799509    0.36591635440080
O          -0.54473593663127    1.12670487920127    1.41051709995548
O          -1.07994648618488    1.50390369687528   -0.93601580053991
O          -2.17918259410518   -0.29289638872244    0.27975835858283
O          -2.73183225357697    1.98079158685778    0.78034155762196
H          -3.25060338846811    2.10242991012071   -0.01174241837186
O           1.29009714143775   -0.88871296767326    1.54692696468186
H           2.00018229857864   -0.50023435512485    0.98269146363691
H           0.73124516878660   -0.13515482954623    1.79440969596642
O           2.78302923698357    0.39300167831254   -0.24918932959270
H           2.74789757602373    1.34314921941032   -0.12754746169200
H           2.19713246129285    0.19404753323115   -1.01344137155819
O           0.83071236230076   -0.12978728935226   -2.02005580358883
H           0.17405697105303    0.54982365510258   -1.79773309229583
H           0.47240776744639   -0.96165125708403   -1.69005057602068
O          -0.31567156377090   -1.94211535457658   -0.11913925983448
H          -0.53502463997725   -2.83500880547809    0.15590231186467
H          -1.45996493454600   -1.00247375271160    0.09657480334701
H           0.38116992459856   -1.59789676685502    0.55187650344415
