    19
        -40.92453850
S           0.25034070048941    1.03474568079734    1.09024840696430
O           1.24944643361043    1.25782576199339    0.05165689063368
O          -1.09489276585856    1.25734585932970    0.57148166870789
O           0.39233019902688   -0.25697684190821    1.72863461848580
O           0.49723777582848    2.11798322871736    2.21299853329803
H           0.40603191411652    2.95685388853578    1.77039807968432
O           1.89506860814725   -1.23008124844896   -0.34236877049187
H           1.83130559484948   -0.24609789389857   -0.25637559711416
H           1.80565617290190   -1.54286563379282    0.56534779728444
O          -0.60388615922991    0.88339507610823   -1.94555945361099
H           0.29039870879301    1.24427262960808   -1.95793877751123
H          -0.94058933628931    1.12755954622943   -1.04590539440987
O          -0.33839604477178   -1.57431701429606   -1.45899211868000
H          -0.49004922603354   -0.60209121243684   -1.81204347423261
H           0.63367019604818   -1.55663011151654   -1.07073567208318
O          -1.66755444351757   -1.43913801354978    0.67826800911565
H          -2.23192396903260   -0.66119799714058    0.59639764017017
H          -0.96240198974352   -1.64613607812709   -0.62161209636808
H          -0.92179237934391   -1.12444960615675    1.24609973022651
