    19
        -40.92120606
S          -1.28795480846405   -0.33617006099179   -0.36039660004801
O          -0.68607723886204   -1.03716871260663    0.77436247563688
O          -0.56139104971850    0.88567610703575   -0.66546053923660
O          -1.54855343591705   -1.19215284212130   -1.48482240928097
O          -2.70758746871278    0.16919672138097    0.16920514805096
H          -3.30482687456630   -0.53976237088585   -0.04980431803488
O          -0.32530924844580    2.07637852291690    1.65546139764293
H          -0.50553082365370    1.80956097186028    0.72461030402305
H          -1.15375303020312    1.97395848305044    2.12758538973371
O           2.08034731385341    0.46019555541556   -0.67511432833190
H           1.97397259601140   -0.42669402376674   -1.08079818200412
H           1.24124218561469    0.90609632359546   -0.89760822012245
O           1.04830671338104   -1.76698644762988   -1.70720880569190
H           1.18924856223904   -2.19087282584247   -2.55639647912907
H           0.08472218710438   -1.62978829313146   -1.62598262388991
O           1.31389924329659    0.10686715265473    1.67326865205008
H           0.50997901219603   -0.50629887401021    1.37742118356646
H           1.80932673996043    0.26002423878755    0.74002008113080
H           0.82993942485546    0.97794038424949    1.86165785394175
