    19
        -40.92453824
S           0.65100233792707   -0.72515405833953   -1.17162270587252
O          -0.05664401859665    0.43286497156316   -1.70708706157015
O           1.72472376439633   -0.30767601297992   -0.27751539581179
O          -0.24082656412257   -1.68572463838876   -0.55677825889624
O           1.32451288615513   -1.46016309790404   -2.39678832175336
H           1.89532569088348   -0.80753057153609   -2.79185548315467
O          -0.99915561222363    0.91736242498719    1.69793622416737
H          -1.66283627206304    0.52124580982995    0.99223071495035
H          -0.38530394811687    1.55800267696822    1.14481508195273
O          -2.29145984050823   -0.13427408301797   -0.19355176383287
H          -1.66357663146343   -0.88238568948111   -0.34707026027041
H          -2.15550278109927    0.43440311770746   -0.96071295317111
O           0.55433001399583    2.14513558247085    0.14019298443066
H           1.43757040391803    1.81208945811422    0.33814873601192
H           0.29458419424145    1.64486063203935   -0.67495948345546
O           0.60180226630395   -1.01170752044843    1.95947808354397
H          -0.37085686786788    0.12026044022620    1.95490680357505
H           0.14512865826588   -1.80025219933127    1.64411637352749
H           1.19718230996726   -0.77135723247709    1.20611670565166
