    19
        -40.92044705
S          -0.22950543117383   -1.52823679531433   -0.40174416541501
O          -1.59267058582453   -1.24832570125813    0.00564752699156
O           0.11736444288349   -0.82811732378966   -1.63626635764048
O           0.74812130092932   -1.27461466847514    0.64260803330749
O          -0.15840246706854   -3.08038467602802   -0.70397966482187
H          -0.99912161068189   -3.26775554282954   -1.11032483616006
O          -0.02172418436515    0.50922121072598    2.34831844770993
H           0.18258082222260   -0.28114285957761    1.78349353493124
H           0.58755303285553    0.48532974251544    3.08862036535904
O          -1.66897717931712    1.12671545825569   -1.00904308129377
H          -1.19997424565145    0.83088017238391   -1.80071417530054
H          -1.84865981832315    0.27650481991012   -0.53093845186224
O           0.15748301688115    2.11425021253196    0.39531721984516
H           0.05406130573585    1.59524834973782    1.27544188459898
H          -0.67560382439883    1.82067815315752   -0.18733410902590
O           1.94631755236753    0.75484129947602   -0.74290703377263
H           2.29310604219679    0.16091658816302   -0.06717906085788
H           1.33303394482017    0.16842031454695   -1.26023122072209
H           0.97501788587745    1.66557125588509   -0.08878486589616
