    19
        -40.92079118
S           0.38673906850869    1.42865131076537    0.12968483928097
O          -0.36274890652524    0.62914807918969    1.08892918584250
O           1.79865882792504    1.50964687408428    0.40198022823888
O           0.10300277645867    1.00653972861585   -1.24332507949684
O          -0.20146112427855    2.89167035234467    0.26530236964279
H           0.38843179261183    3.41590253414487   -0.26738313423258
O           2.62484984110976   -0.93156252002598   -0.18375209365595
H           3.46608385637114   -1.07101705608105    0.25531641235434
H           2.39089933479290    0.00999040672111   -0.03332372363362
O          -2.76802686995654   -0.08679569472896    0.32613238005239
H          -3.17153432135547   -0.58834344133661    1.03741640973825
H          -1.96322646910107    0.33989829470547    0.70439762140492
O           0.28158780655798   -1.89843104775106    0.53794877316356
H           1.21317849082871   -1.76789650884819    0.24202925194334
H           0.07301545378700   -1.07442055660681    1.02301020495837
O          -1.14407655034327   -1.12855240547777   -1.35594909759401
H          -0.61081676252009   -0.22550285930161   -1.46344206267782
H          -0.54371715961882   -1.63065327846295   -0.63132174958827
H          -1.96083908528334   -0.82827221200813   -0.83365070573951
