    19
        -40.92217268
S          -1.19564523464691    0.66188951681166   -0.19617728402151
O          -1.42976973444188    2.07677706595403   -0.23717070735005
O          -0.40009746806453    0.17502341955575   -1.33065053414833
O          -0.68076348888791    0.14279750450317    1.05852517544144
O          -2.62033280046536   -0.04653330757144   -0.36346566536902
H          -3.16443663736887    0.60512616869293   -0.79573627108191
O          -0.66020681134097   -2.44739930044223    0.70977998002968
H          -0.79919359454043   -1.52180981390276    1.01640889635451
H          -1.45017570378545   -2.68659450729280    0.22114328286441
O           1.99980098770944    0.19078170368215    1.15582532444126
H           1.12016397897126    0.18035423582404    1.57255413177372
H           1.99687798222868    1.03645352762383    0.65532036936741
O           1.25252198578522    2.25950933834893   -0.36250798938257
H           1.36707405523451    2.13079257191594   -1.30710192143607
H           0.29476052312521    2.37378979682203   -0.23093721873538
O           1.30826192861712   -1.45381771839559   -0.59245112248709
H           0.62956540165760   -0.77702164907477   -1.03682202261076
H           1.75734771213156   -0.83351329770121    0.15344151494932
H           0.67424691649001   -2.06660525681485   -0.08997792924882
