    19
        -40.92139823
S          -1.03381130656403   -0.63309127249636   -0.00009749083397
O          -0.65328740303357   -0.16627428096104   -1.33210789181532
O           0.09836452537411   -1.28651100835370    0.64982988163149
O          -1.56973458433932    0.45599399470353    0.81252522183604
O          -2.18009582695640   -1.67248617567851   -0.15860557767261
H          -1.76332329644537   -2.37184883139722   -0.70266145560299
O          -0.28229180947347   -2.87652953049427   -1.53354596972174
H           0.23489501298237   -2.72649110527226   -0.73044702315060
H          -0.22650777960927   -2.04567761268820   -2.02323360259184
O           0.68313430563868    2.04078329945276   -1.21222026743925
H           0.21387339104099    1.16995783626841   -1.34299259861171
H           0.25595745883266    2.66096349240858   -1.80699230379533
O           1.71801635897063    0.26902440047544    1.95337967885357
H           1.11850372960407   -0.42098171078613    1.56361057776822
H           2.55480810919824    0.19228058089089    1.48946061771211
O           0.17363029291795    2.14239400810670    1.26336187360217
H          -0.66917771372372    1.50015625710902    1.17022158256391
H           0.88094314256894    1.50170825783874    1.66469423545842
H           0.44610338302091    2.26662940087528    0.27582052182116
