    19
        -40.92136405
S           1.28760468756996   -0.01198339741041   -0.51355385759171
O           2.31191487706221    0.86897612757998   -0.00995941408233
O           0.75893738955788   -0.93235670296739    0.46776122050363
O           0.19958990669783    0.72133139824761   -1.18444431247245
O           1.95155854352366   -0.89578964097087   -1.65345496327757
H           2.64139619087731   -0.34108627888441   -2.00655335555904
O          -1.44515647072630   -1.31765219296911   -1.76973119616128
H          -0.88687850649321   -2.05725846276475   -2.01559760272352
H          -0.85900920700785   -0.53849631669577   -1.73052546711164
O          -1.83150083341920   -1.01999255217938    0.84977025824973
H          -0.86814813911355   -1.21750994807227    0.89881912187244
H          -2.04712932011447   -1.24423682334423   -0.08247058230724
O           0.81120628627818    1.42441273037153    2.08407492956322
H           0.89236953640339    0.60468508823021    2.57955873658231
H           1.48135293141181    1.35999749301185    1.36629291639569
O          -1.32551093559266    1.39990011500846    0.68851728526996
H          -1.70132352513839    0.38236213741268    0.83878115455139
H          -0.57745342377125    1.52964088859276    1.37528427153447
H          -0.79382000485931    1.28505634847662   -0.18256914471614
