    19
        -40.92007368
S          -1.33945403722633    0.08223414393619    0.38403015846589
O          -1.89305829414284    1.37594147776404    0.05214411228054
O          -0.87023475409359   -0.62694031682368   -0.82348179033029
O          -0.32248564632494    0.09676046571406    1.40228066793099
O          -2.53499397642112   -0.79886082032986    0.93904231760752
H          -3.28869857589225   -0.49450643729602    0.44256713882585
O           0.48356993301850   -2.61386283777666    0.39044384291891
H          -0.09052959647197   -2.02645843480123   -0.13559523608391
H           0.02084644430931   -2.75909955376348    1.21800915528559
O           0.28449147695716    2.63325334596994   -0.63425696941591
H           0.04158823795085    3.32370438497892   -1.25506313503760
H          -0.56300385284686    2.25179616375616   -0.29489159007250
O           2.13539491132794   -0.56063572490840    0.74806842653264
H           1.38627762952428   -0.17760891259748    1.25686236221364
H           1.84624170016399   -1.49380318581707    0.61930598258376
O           1.33881833624571    0.43344427606894   -1.36962923211653
H           1.84871682867025    0.02316158331830   -0.48060280116344
H           0.43808955190341   -0.06013646771510   -1.32206426084771
H           1.07842369165267    1.39161684220901   -1.13716912826205
