    19
        -40.91451138
S           1.41417474912578    0.62119878829707   -0.04391035663563
O           1.03564157216214    0.09033192272731   -1.41444843063146
O           0.93212933783466    1.95621579113840    0.12127115421138
O           1.09212163157072   -0.33229158006910    0.97341437049371
O           2.99186423102753    0.69809516299067   -0.10060657416748
H           3.23649651246199    1.48999464518222   -0.57585513328314
O          -0.75654257620630    1.03947184365155    2.47040276473307
H          -0.35986100913864    1.91207610578103    2.41215096982262
H          -0.07748497699961    0.41966224588420    2.16373825856647
O          -1.64992143589299    0.91789109943657   -0.08668345886427
H          -0.88409435686144    1.44834529093357   -0.33088578360775
H          -1.64714188624170    0.91697044805251    0.89064706942116
O          -2.09380682877417   -1.56755904050604   -0.96599559941376
H          -2.51312446040891   -1.48383505699695   -1.82399242683780
H          -1.99973170006160   -0.65198325077547   -0.61687792473065
O           0.41644484473229   -2.23371388946561   -0.88502425138136
H           0.63786206884862   -2.14598772898804    0.05216321678718
H          -0.57900498907625   -2.13929793254083   -0.93743249088868
H           0.80397928189719   -0.95558485471261   -1.30207535358576
