    19
        -40.92453831
S          -0.14922257851978    0.49085118999192   -1.43495917784308
O           1.07574518301501   -0.29832968111961   -1.36330233054509
O          -1.31481235124434   -0.33529225973906   -1.14224519896668
O          -0.09156917935182    1.68123336248063   -0.61299866961194
O          -0.29338371973374    0.98507365356633   -2.92823478669492
H          -0.34340089982469    0.18801559505453   -3.44790811998193
O           1.85701793026788    0.97688698428918    0.95309614878856
H           2.33861351165106    0.43537108463284    0.31644527165172
H           1.19028320475448    1.44877160745140    0.39620182513755
O          -1.82805199552352    0.62384669063864    1.21956562095893
H          -1.57138856748948    1.53886081085962    1.05633582714008
H          -1.82498458700224    0.21743759095288    0.31702376436129
O           0.22016498382690   -2.20293843997522    0.17183462705560
H          -0.68906247153686   -2.23211038130486   -0.14837675667046
H           0.67504894462697   -1.60237549896707   -0.47229445238319
O           0.21776990209653   -0.56597374422441    2.08690494675625
H           0.97097492079996    0.08004925227541    1.75355189938378
H          -0.67854566973351   -0.06935984989327    1.87211586979799
H           0.23880345892136   -1.36001795697038    1.40724368166466
