    19
        -40.91904998
S          -0.78230444098791    0.84709669286486   -0.17542124037543
O          -0.21138043889408    0.83380378620840   -1.49897755055732
O          -1.66891415938096   -0.22232696113224    0.14733310826942
O           0.38319938930373    0.89095490760773    0.83145781584877
O          -1.50389167128160    2.19926185992741    0.04771949174287
H          -0.85291882450928    2.88536683811935   -0.24280749811204
O          -0.19042146467312   -1.88739845461994   -1.63149497649675
H          -0.07812712298777   -0.93494338719247   -1.78049159070814
H          -1.11286294857948   -1.99131442950828   -1.38148856158671
O           0.66631406541492    3.30625816587484   -0.87485934199916
H           0.62490000042582    2.52560384104324   -1.45020541811604
H           1.34512360461816    3.12524436326135   -0.21886344580496
O           1.13399696343389   -2.66466342028393    0.57283077224998
H           2.07180150015367   -2.56214343342203    0.40469254901864
H           0.67541444152224   -2.46720592392398   -0.27480699628807
O          -0.11694067113039   -1.07977351441422    2.26850707382625
H           0.39444999288730   -1.76911634821920    1.77148317773879
H           0.24837920022829    0.12249004257902    1.53439143801704
H          -1.02581741562547   -1.15719462483714    1.95100121331943
