    19
        -40.92453666
S          -0.34523330325259   -0.15837729776272    1.47600076232711
O          -1.59219168167811    0.11718758375737    0.77139813349427
O           0.23868108681205   -1.41580264586908    1.02247683503913
O           0.58994800008134    0.94453405699054    1.40343610468198
O          -0.70724640286871   -0.33810085882364    3.00281159703190
H          -1.35841405950554   -1.03345006477450    3.02140408281612
O          -0.90319368133492   -1.55832767863954   -1.29878871934850
H          -1.74115871221257   -1.14699358354846   -1.05634915013351
H          -0.44990577840062   -1.69320367238668   -0.42758193730701
O           0.58120552629995    0.32572170634653   -2.06867232889531
H           0.05858142096226    1.12600727655568   -1.64180967534937
H          -0.03963112242258   -0.50006249188844   -1.90643941416646
O          -0.70894006241119    2.03800331044053   -0.74284085428099
H          -0.08916438547171    2.43254487957456   -0.11826879495323
H          -1.21924134318015    1.39581335972286   -0.18909428064039
O           2.28976178225336   -0.09410362077419   -0.26365830266366
H           2.18083086648336   -1.01500639014220    0.00191226183320
H           1.39640191707184    0.16576018192383   -1.43205321869053
H           1.81890994272180    0.40785593928308    0.44611689917629
