    19
        -40.92343665
S           0.81134477663915    0.79738357819391   -1.24517390971612
O           0.85794739100647    1.91077702034550   -0.29620963992770
O           1.80018125413121   -0.21440131937512   -0.93938801201998
O          -0.53017750683649    0.24850466855401   -1.36508867691548
O           1.16800583050135    1.40371368268538   -2.65483969286162
H           2.03946276694793    1.76079886387591   -2.51442997119004
O           1.06488361376339   -1.13227923190504    1.39728928614903
H           0.33399956519648   -1.68534065410296    1.04996457815734
H           1.55486598861312   -0.85647605820767    0.58619309217965
O          -2.22375529125216    0.41971117815597    0.68981229288862
H          -2.38707820356850   -0.52566864000464    0.77946328424375
H          -1.80092894559778    0.52282625688297   -0.18817989649530
O          -0.92491970219684   -2.07433940876021   -0.14161971202468
H          -0.75410066095408   -2.84659561466355   -0.68244429925750
H          -0.76937886565736   -1.29456274202162   -0.71915187570638
O          -0.04816468103913    1.05063718445934    1.85044144626689
H          -1.01153985778067    0.85948194666765    1.54781459513423
H           0.45378864694023    0.10720784645789    1.81630406269382
H           0.36556389114154    1.54862144276678    1.02924302840716
