    19
        -40.91904986
S           0.43070189867464    0.07150273434822   -1.08251725969028
O           0.63344308415489   -1.10047304202144   -0.10288991479777
O          -0.96719773186705    0.10668161192465   -1.43262910380480
O           0.98127408516325    1.26812206935410   -0.53588172840045
O           1.25042034379287   -0.35156617143202   -2.32663142971332
H           0.78360818026124   -1.14928224893483   -2.67957910457201
O          -1.58183851962635    1.84885491905884    0.57040873517133
H          -1.59097608149322    1.21705487741846   -0.16622433090511
H          -0.90198760667038    2.48803895113056    0.33928170243235
O          -0.48301416765020   -2.27765834278350   -2.59514790835148
H          -0.34756122848308   -2.85450539511201   -1.83838656736925
H          -1.07334728374670   -1.56706449159992   -2.29720911380614
O          -0.61752582929819    0.70584854905354    2.80297086366351
H          -1.03366332914281    1.17296654672680    2.04388407474366
H          -1.24264103777500    0.03708755244391    3.08622326511695
O           1.73539159918588    0.03435289638460    1.82000444362496
H           1.94917223404283    0.82505074873109    1.30813916281438
H           0.92800975650276    0.27170766085906    2.34474578040550
H           1.14773163394711   -0.74671944557078    0.74143843334111
