    19
        -40.90557131
S          -2.02158577819877   -0.74158593015573    0.24253348556428
O          -0.79805416084342   -1.28452986241821   -0.38135949785413
O          -1.76695498911763   -0.54700840989607    1.68094713606009
O          -2.54770110605810    0.39432865321738   -0.43669253524500
O          -3.10379166348518   -1.89149070096191    0.15526237174271
H          -2.79836699383588   -2.59553522651991    0.72187727395187
O           2.77085830331362    0.79865000006421   -1.43843273651972
H           1.85078698088321    0.89118262404392   -1.72264370369135
H           3.31859635027805    0.95774222576179   -2.20774929864462
O          -0.05774707764408    1.09417990863877   -1.29694693677759
H          -0.26638791402614    0.14997957562162   -1.14999569949689
H          -0.93026899379228    1.50297340301595   -1.32545808301175
O           1.48668416926648    1.34578821509404    0.89043557362628
H           2.31420870910179    1.21616112401382    0.40034103579978
H           0.82194116114239    1.48847649358677    0.17921992834563
O           0.63921432612988   -0.88946590302432    1.63302204217245
H           1.07010122994501    0.06288620379399    1.42815027866387
H          -0.38564143649224   -0.69202256579921    1.90045664467210
H           0.40410887340716   -1.26070983813172    0.72703273067137
