    19
        -40.91687502
S           1.39745445648024   -0.66893376632638    0.93184564347562
O           1.99539918401394   -0.04546691138180   -0.24180861534645
O           0.80037336008931    0.32786111739588    1.81091310687962
O           0.48198140126028   -1.73783421238514    0.59627843652726
O           2.58854706285442   -1.32678148152143    1.74029725365138
H           3.13642752276866   -0.56688943656103    1.90577667655988
O           0.60397440333822    1.71709090507482   -1.44418661563527
H           0.92087246701534    1.67196301308936   -2.34893284872248
H           1.18367652370389    1.07929887136428   -0.92590530110884
O          -1.68607946927051    0.75347231869695    1.45432677679098
H          -1.82637349253902    1.60837541391165    1.86725845165390
H          -0.72955286861494    0.51380944843154    1.65003945148351
O          -1.05845298276103   -1.67537023450485   -1.43895606175913
H          -1.72756515367815   -2.33271117572271   -1.23623165470476
H          -0.37969978228793   -1.75110523646272   -0.70594715799784
O          -1.67378636267695    0.73127038456582   -1.05614512117925
H          -0.76698877348700    1.20704148589880   -1.26663529485332
H          -1.49941564572369   -0.27357496221704   -1.27840854491951
H          -1.76079184050515    0.76848444865090   -0.01357861080591
