    19
        -40.92045299
S          -0.72596943157042    1.31682617125471   -0.54551807695694
O          -1.53619090757986    0.33788506090490   -1.24544517291419
O          -0.74482154753040    1.10602656557291    0.89945382000311
O           0.63588115642947    1.39503483667243   -1.04719757724104
O          -1.40107712673448    2.72193290511607   -0.82262088999842
H          -2.30461855316439    2.49270280103243   -1.01877396219400
O           1.10381629224547   -1.79922791970146    0.42789793606184
H           0.86608233613136   -1.66048136594053   -0.59441064282380
H           0.19559852877591   -1.78447227168078    0.90921225356504
O          -1.13438682632357   -1.36386833258297    1.52895856690493
H          -1.26919439706699   -1.39695650023053    2.47795223249418
H          -1.13116060299505   -0.40237930890598    1.27256923174769
O           0.44920343204096   -1.18113806297322   -1.91221927065752
H          -0.43720639644511   -0.76436489908151   -1.75912122610702
H           1.01099304662617   -0.42293133972934   -2.11948149376540
O           1.92906995104024    0.51109224504980    1.00354364985155
H           1.56613366636811   -0.90087354761149    0.71254364628116
H           1.61923029053723    0.95080513977545    0.16995754756749
H           1.30861710925729    0.84438782309146    1.66269942813539
