    19
        -40.92045296
S           1.58639836720957   -0.08680091625083   -0.18341002428471
O           0.83962237471495    0.60337614688838   -1.23158694975188
O           1.56971502718740    0.64947938673533    1.06654597067323
O           1.14231209689570   -1.46337490153558   -0.04158852193312
O           3.10092489488649   -0.13561191463317   -0.64221292818992
H           3.48251610867598    0.62333893082877   -0.21123520651266
O          -0.32183771399819   -0.74971398886164    2.14210845558406
H           0.38812069457055   -0.09219311089486    1.92596943572466
H           0.03607731834665   -1.57605693872145    1.79216616180351
O          -1.05824396655267    2.06963013846722   -0.28462046546578
H          -0.23721549906331    1.61844437224050   -0.62005457473946
H          -1.40595571494317    2.58880181421331   -1.01224571069461
O          -2.09443182439260   -0.10728967629988    0.48941428775902
H          -1.44291280267513   -0.38185061542929    1.27757467394980
H          -1.80907203615906    0.84787419778042    0.23860701929027
O          -1.04208841382560   -1.38133415688653   -1.41309598125859
H          -0.20705049309078   -1.62445715105973   -0.93581916849866
H          -1.78413294578851   -0.69577930677155   -0.32250725395195
H          -0.74274547195820   -0.70648229976127   -2.03400921959417
