    19
        -40.91437267
S          -0.16050507331899   -0.78797894749731    0.63498210471292
O          -0.28814276770001   -1.36643534711081   -0.69269134064819
O           0.98223228330387    0.13930196731056    0.69864239031086
O          -1.36982561903714   -0.11807857874821    1.09477236435403
O           0.11498801345151   -1.94877308060257    1.63840941865838
H           0.69992722105973   -2.58853568261479    1.17503219674501
O          -0.90262154480290    2.90850168225228   -0.75436139093539
H          -0.44707578194748    2.21219284418496   -1.29991487211493
H          -1.84108640683001    2.81739700534803   -0.93274164268076
O           0.30012982619999    0.90531830957738   -1.96072950086448
H           1.22832115989582    0.94351786830200   -1.71444403282168
H          -0.01184272319840    0.04149720149978   -1.62451600731665
O           1.30831354352391   -3.41571555283817   -0.20147522603852
H           0.80215479165274   -2.73706026609941   -0.68834380371125
H           0.89486950108224   -4.25982304449693   -0.39755775742338
O          -0.29288233593802    2.04321343752185    1.54024757006126
H          -0.52802129109077    2.54855355839610    0.66111378698432
H          -0.98108147326791    1.27049556570566    1.56412574055027
H           0.49214867696214    1.39241106992414    1.25944999219225
