    19
        -40.91908976
S           0.20248167290406   -1.03720421344304   -0.58012847305722
O           0.49035584098028   -1.39684747679865    0.79507428233199
O          -0.95544061333624   -0.09420199185973   -0.61002121600078
O           1.33552334886059   -0.47340923744093   -1.27185213654017
O          -0.25545825637523   -2.30333976574742   -1.35379490887112
H          -1.12753509322317   -2.51518471153578   -0.96033738264742
O          -2.67263701872570   -2.07973081662310   -0.31846254670252
H          -3.37787176373505   -2.04330208321418   -0.96898684207941
H          -2.26574899153847   -1.19263249009605   -0.29558478128006
O           0.89998895778580    0.65304633317218    2.27917554980695
H           0.43294426681741    0.49179856602272    3.10173229956339
H           0.84119669134320   -0.20114209663190    1.76021184641172
O           1.86521758279936    2.05503175530898   -1.08346537036558
H           2.71721632318013    2.09615495735144   -0.64287853723101
H           1.72470085920825    1.09954722267293   -1.31498999734074
O          -0.15583225438602    2.00060248152651    0.42600409117398
H           0.65446890601275    2.20043414006956   -0.19025042802365
H          -0.60586323426393    1.16016496735244   -0.05134569283240
H           0.25229276360035    1.58021446886096    1.27990026533975
