    19
        -40.91520710
S          -0.18479759874056   -1.18114708831330    0.35732293019394
O          -0.34826960318538   -2.00493068793833   -0.79569448919208
O           0.89561043893395   -0.21651391079075    0.27752557122622
O          -1.48716464700811   -0.46107992502861    0.67653304814328
O           0.05003191577069   -2.05433513575660    1.62182304566351
H           1.02525561052376   -2.12287928588936    1.77638528240219
O           2.62586759288260   -1.64597918854999    1.70393243860361
H           2.96386395289206   -1.17413186237322    2.46925132552221
H           2.32739186970800   -0.97740762527579    1.06178123647944
O          -0.28241689522236    0.10610060770747   -2.46527750231936
H          -0.41590635391857   -0.74073540132624   -2.00558571070920
H           0.66784308645075    0.23534259809209   -2.50031876314075
O          -1.51872358842656    2.29336688364424   -1.47836498357854
H          -2.45909942604008    2.16800868550326   -1.61685170824514
H          -1.07693453396443    1.53228539151615   -1.91236274933645
O          -0.69704258702804    1.88282112553120    0.98419878998496
H           0.21143409353460    1.59717127585355    0.81602158699107
H          -1.02777042769431    2.22937843877789    0.11430390678201
H          -1.26917289940935    0.53466511433134    0.91537673451202
