    19
        -40.91437241
S          -0.28153211044472   -0.73951008628292   -0.64425494714243
O          -0.15948098359553   -0.88869577581737    0.81555564810734
O          -1.45815796032365    0.05823057471000   -0.96557430722311
O           0.94657069524247   -0.21577028534535   -1.21947334587790
O          -0.52709872947498   -2.15603686588938   -1.24730355985400
H           0.35485477941184   -2.58002584750697   -1.34097119082282
O           2.05043307042833   -2.58662549937333   -1.60666846782170
H           1.95695441666950   -1.62288089236371   -1.47908228151762
H           2.32733381774231   -2.71722112600527   -2.51660716797940
O          -0.91017955227073    2.62999143226632    1.45452294030792
H           0.00086433506493    2.29664235255432    1.23376165465021
H          -1.16420986302012    3.21220686084819    0.73527132938014
O           1.36989865456161    1.51557006648928    0.76530804285715
H           1.58441524911076    0.86940634095670    1.44367888681318
H           1.28558588743646    0.99417002411574   -0.05776644141034
O          -2.14408521959524    0.42660454594722    1.36105355218388
H          -1.73813290603847    1.37136282336845    1.52229877860965
H          -2.18022279954021    0.35532926836036    0.32727608493104
H          -1.31381076132193   -0.22274791102762    1.41897479180671
