    19
        -40.91893395
S           0.03047528070642    1.22228900738021    1.23498026854948
O           1.30206524943745    1.88835156623546    1.11043982484219
O          -0.80941689910989    1.40530784498305    0.04115985346367
O           0.10128603102592   -0.17553116420885    1.61256566415074
O          -0.74527460830046    1.95131323781656    2.41281945295116
H          -0.44674602922905    2.85291652486213    2.34071209630732
O           2.16749999071555   -0.20568570087607   -0.24403882113173
H           2.00907803333443    0.66492035606913    0.17399862962523
H           1.90614439408127   -0.84099065549128    0.42929090459452
O           0.83640420752994   -0.60110900033570   -2.47000049248245
H           1.02221003243190    0.15887788798509   -3.02503790909580
H           1.41459152771241   -0.50422855859132   -1.66637254003037
O          -1.29333248662299   -2.10394260988302    0.58965083843393
H          -0.72317638646709   -1.45015777134135    1.07119405577545
H          -2.06442557968041   -2.24720469360593    1.14142638892369
O          -1.44113306801297   -0.50371127910703   -1.37537194928942
H          -1.46002618345364   -1.26190018845298   -0.68589130462202
H          -1.24340071250103    0.36281895290344   -0.77775195968993
H          -0.56282280359342   -0.61233376639700   -1.91377299130162
