    19
        -40.92045291
S           0.36750383491792    0.59138610772210   -1.43960422932651
O           1.62749982007759   -0.07457488657094   -1.16819402820434
O          -0.76119521867400   -0.33325582138224   -1.37757059659414
O           0.14201480168264    1.75307892649108   -0.59597255084305
O           0.46206816847982    1.11522284832982   -2.93074429249656
H           1.10488681500954    0.53263375405826   -3.32432046811711
O           1.76163567335233    0.66750413350175    1.30650655334827
H           1.43906979594462    1.55430092137515    1.09918739390593
H           1.90514546833060    0.26925609222063    0.40996683254741
O          -1.87383877604055    0.92682093313021    0.78740241885284
H          -2.24570546189545    0.36799419821254    0.09461117461820
H          -1.17813337137685    1.44159764669494    0.30259897906527
O          -0.32567155021386   -2.30787865665171    0.22224565681401
H          -1.04362097474023   -2.93270240136553    0.10377722403709
H          -0.41827230776389   -1.62450633044472   -0.49515529183091
O          -0.28876125508316   -0.56432078484370    2.05808524624117
H           0.62657087670582   -0.07007590147969    1.86116060754447
H          -1.01994884882719    0.06924699471297    1.65118456475755
H          -0.28124748988514   -1.38172777370917    1.43483481568277
