    19
        -40.92343661
S           0.38208926889659    1.17865575984824   -1.14486165510549
O          -0.89883462943488    0.75818830248098   -1.67128942124984
O           0.23314169538796    2.10212095978486   -0.01904604606182
O           1.24319422000834    0.05572845176595   -0.80918720964466
O           1.12538016784568    1.98166300042546   -2.27825505572795
H           0.53458274397452    2.71070160295234   -2.43970273763248
O           1.42761131164323   -0.76524478767938    1.72310252845787
H           1.63781115661588   -0.40693859793640    0.83564314365325
H           1.14986791515756   -1.67453013769144    1.56664993904331
O          -1.98790012871735   -0.56841031770494    0.30295357671223
H          -1.45568911631126   -1.38072249559085    0.17054120269812
H          -1.80018899647543   -0.03139530902350   -0.50351066756008
O          -0.00035144693129   -2.24752487737099   -0.36497709958930
H           0.49272196242654   -1.45139784482115   -0.66296790752545
H          -0.11082988565931   -2.80013197622273   -1.13987427951654
O          -0.60413244017125    0.75838873162046    1.89464899879932
H          -1.30769718183405    0.18320809664835    1.33076911264012
H           0.21065579499603    0.14535918379876    2.02263953874856
H          -0.27143243144710    1.45228226481832    1.18672403888896
