    19
        -40.91904998
S          -0.54111811118616   -1.01631988597096    0.18617368147154
O          -0.23730893667857   -1.16643610828230   -1.19911880620154
O           0.54923410118513   -1.20711987161700    1.10946303200775
O          -1.13265290024408    0.38175963311971    0.45041750297319
O          -1.69632827361781   -1.97530427181224    0.56629444606287
H          -1.81647301551616   -1.85462722544779    1.54088517341703
O          -1.36803095388032   -1.11768590812261    3.00418475522609
H          -0.44190985698913   -1.14455222422536    2.71479681300034
H          -1.63086328953350   -0.19330702719675    2.99005605293669
O           2.40451624616620   -0.25260185677033   -0.64320444837468
H           2.13604643687003   -0.82227069298706   -1.36956805389431
H           1.92059997381357   -0.58730665199465    0.12860382877532
O           1.47176550207036    2.15735827413009   -1.37837581050291
H           1.90353481188548    1.30810485346078   -1.13348628248500
H           1.68699990763376    2.78173063580970   -0.68413567535031
O          -1.02028250148747    1.41257944345313   -1.81336118469474
H          -0.12209477104791    1.82839242962193   -1.75132046639670
H          -0.87993906617448    0.56659357691882   -2.25775729988510
H          -1.18569528299434    0.90101288793702   -0.46054724810221
