    19
        -40.91832177
S          -1.38086216297757    0.06167448663509   -0.17596770400909
O          -1.01660083833797   -0.06486108666617    1.31277184133935
O          -2.77537966907820   -0.19097479652360   -0.33128372020462
O          -0.84239953209710    1.27985985360666   -0.70489547574074
O          -0.57574382992007   -1.10991229653114   -0.83722615971145
H          -1.00550135583724   -1.92388095653386   -0.47518922300710
O           1.43402911408536    0.56720888420143   -1.98718141639557
H           1.20782328072709   -0.33723266547012   -2.21807503449016
H           0.60613598033067    0.95738236133926   -1.65439668987751
O          -2.17795554171461   -2.67852861220046    0.47574045491077
H          -1.98915391118496   -2.57110804404085    1.41197911897483
H          -2.80323106262046   -1.97266973460453    0.24076716587640
O           2.81343112083979    0.58927204134621    0.29585347223452
H           3.62139099106564    1.09441663524801    0.19018499594960
H           2.39605632303523    0.53897423308284   -0.59631912007673
O           0.75735493874011    1.68606805252825    1.53253087148219
H          -0.26373782911851    0.62032691470523    1.53097917564599
H           1.58852630330790    1.25845746719745    1.19766055162945
H           0.40581768074073    2.19552726268530    0.79206689546094
