    19
        -40.91893396
S           1.14142231198680    0.76048126323977    1.06479228581780
O           1.36852770563545   -0.16884221501093    2.14222737737431
O           1.59199593832574    0.22784499089785   -0.23013559548290
O          -0.20913130750123    1.27930099190531    0.97297943696154
O           2.07034925485631    2.01568610627095    1.35152019629568
H           2.82614901713984    1.62898855152596    1.78325686127540
O          -0.83358136256663   -2.35576631996683   -0.95779621370947
H          -0.17707378329683   -3.05492505625867   -0.94347756221435
H          -0.92566196916068   -2.04398345036046   -0.01754260600336
O          -0.00760060487410   -0.22596429663500   -2.04280529380789
H           0.74721849864576   -0.00908796609546   -1.31473163577551
H          -0.39254137601832   -1.12815670846710   -1.70986002099042
O          -0.88508229250591   -1.36802769084922    1.47173468603566
H          -0.01092891689838   -1.09925660414289    1.82029275081488
H          -1.40751259403651   -0.56078327918973    1.49983513073340
O          -1.57410197388083    1.58820400850254   -1.20712387394076
H          -1.14423801998111    1.53850851730491   -0.31427733562055
H          -1.45729706353592    2.48969092798396   -1.51247210658105
H          -0.72091148234008    0.48608822934502   -1.85641650119139
