    19
        -40.91792408
S           1.55355689236358   -0.21721752044424    0.62993665904998
O           1.26239463546955   -1.63475299261527    0.50409889323106
O           1.70943067025778    0.42571498434588   -0.66419754252921
O           0.59144753635350    0.47654700523389    1.47330887334553
O           2.94604133835647   -0.10687671116184    1.37623133213891
H           3.49026029252474   -0.71513673235042    0.88591328219743
O          -0.04948767264101   -0.28746550648847   -2.37993461374541
H           0.69574003269270   -0.07848130025840   -1.74359134454711
H          -0.00838544371110    0.38969625967860   -3.05912232066859
O          -1.05631429633596    2.04831426396186    0.27783480617439
H          -1.50677647639039    2.53582933950242    0.97009631297917
H          -0.31075445402290    1.55662455130866    0.72048166411538
O          -1.97676796232839   -0.05831912883817   -0.78845421841401
H          -1.73187545998284    0.85819054017257   -0.39139406733743
H          -1.24909873800543   -0.21245698450963   -1.52589062423940
O          -1.22848687588666   -1.53537881418886    1.09350216116936
H          -1.74831221907537   -0.75357319528222   -0.02128724618812
H          -0.29947378279951   -1.77393167786646    0.82254897033447
H          -1.08313799685350   -0.91732638024942    1.81991902293038
