    19
        -40.92019826
S          -0.96849234103162   -0.08948927888412   -0.50929159473079
O          -2.26375255133296    0.22204602961157    0.00316662787198
O          -0.09851296916365    1.04510081421782   -0.71363625665589
O          -0.22782306933265   -1.06457091483546    0.44978425766682
O          -1.10770607676141   -0.90830105715805   -1.78576574766748
H          -0.19244341536992   -1.24471777053966   -2.09189640111864
O          -2.05597231831258    1.14122631397773    2.51953895047654
H          -2.28210166250133    0.90795005260268    1.59835276656663
H          -2.63357476668956    0.61884093502258    3.07925581228517
O           2.37437392342411    0.09936070402282   -0.85754941049091
H           1.53978415859565    0.61132658620823   -0.83040284555019
H           2.55508079199775   -0.17743358263448    0.04364000725330
O           1.23001972832467   -1.59956000088935   -2.51290312475282
H           1.39829840309614   -1.28277137692815   -3.40370502948205
H           1.79890720848061   -1.05787610895081   -1.90912079720627
O           0.52583987989150    0.80334245047710    2.00811749632543
H           0.14636189123671   -0.47263263772901    1.17835985194843
H           0.60303791197689    1.45550993363011    1.30119999207924
H          -0.34132471652505    0.99264891879566    2.43285543517246
