    19
        -40.92139828
S          -0.32348245896490   -0.87855604282216    0.76941429151165
O           1.12152413527036   -0.66081122453698    0.72613264670138
O          -1.02141350033683    0.39100497550975    0.94780019803848
O          -0.78983958645904   -1.59098634205109   -0.41745357941059
O          -0.64093645284613   -1.79245440794357    1.98745644429380
H          -0.31110483555286   -1.26561272737537    2.74397546167249
O           0.47029181517271    0.24860729192399    3.22886264267856
H          -0.17900391387716    0.76205043083765    2.72934040146018
H           1.20294502781840    0.11047404263218    2.61434682420846
O           1.88270090649250    0.19080325963905   -1.59040960470843
H           1.66742593392606   -0.09216684071675   -0.65803928252574
H           2.59440402621288   -0.38359335626832   -1.88102006700568
O          -1.55407791674139    1.70970029049624   -1.22503227879336
H          -1.48112252479537    1.24923115021480   -0.34763140238769
H          -1.05329898705868    2.52450995936146   -1.14459633356205
O          -0.46465979845141   -0.21618802617681   -2.43994939058563
H           0.53335855544053   -0.01985859893102   -2.26510312249474
H          -0.68188188302138   -0.91119554423491   -1.66454341056043
H          -0.97182853225009    0.62504172049373   -2.11355045851278
