    19
        -40.91440014
S           0.77588563293566    1.17786662259496   -0.91885141058715
O           0.07132558979586    0.11027921312074   -1.61649826248879
O           0.08845664501299    1.48069691404091    0.35114344288064
O           2.18925037383182    0.99316868877288   -0.76928936524225
O           0.57052183633124    2.46869233394638   -1.82235274703197
H           1.32128304791991    3.03277514034208   -1.65627204424255
O           0.42501227466946   -0.82944466695650    1.78817182247440
H           0.44153667565131    0.09668371682601    1.49615169093055
H           1.04230627847399   -1.29652777828254    1.18289477617802
O          -1.98831086742938   -1.49876608799800    1.22892671768559
H          -2.51822392280784   -1.42217769505809    2.02487565291336
H          -1.02441534078194   -1.35980261051225    1.50786578172706
O           1.89811432981130   -1.63828195105686   -0.29323838968027
H           1.27806006042467   -1.76363136790032   -1.01751955655917
H           2.28770767013530   -0.76123083691102   -0.44935925470002
O          -2.02693677355193    0.43589389842938   -0.34839891387145
H          -1.38943242796350    0.14522390785683   -1.09734495356066
H          -2.12464151126512   -0.41169784565466    0.29325680893390
H          -1.31749956121118    1.04028040437163    0.11583820422465
