    19
        -40.91893411
S           0.00527710317177   -0.54684094711993    1.64727076351188
O           0.77004678431999   -1.76793002807452    1.66055650093704
O           0.75027001624224    0.64239646104704    1.28337922898321
O          -1.21996650652586   -0.66928202669411    0.84284596496065
O          -0.48918748650126   -0.31060586825157    3.13727653275122
H          -0.60758083145959   -1.19641601857677    3.46664108723468
O          -0.06844109414947    2.52227446126108   -0.29993913867867
H           0.34187028716275    1.88206242827988    0.33738984337474
H          -0.46390237068715    3.21549126280951    0.23165044723061
O           1.82471364409078   -1.04005691276819   -0.64687601698404
H           2.09944675511792   -0.17408815576684   -0.33064672815249
H           1.50303925388576   -1.49676389800230    0.15678826737812
O           0.03427633370941   -0.80831531501613   -2.54941305715690
H           0.78047071028734   -0.90570648038475   -1.89854939685796
H          -0.30628582362527   -1.69254484214511   -2.69851973356962
O          -1.53026224406595    0.65570405082730   -1.20641988362963
H          -0.94121892024953    0.10588418938592   -1.85752224076007
H          -1.48120515692555    0.08270570821742   -0.30328772961599
H          -1.00136047367104    1.50203192091796   -0.97262471098621
