    19
        -40.92343653
S          -0.04310264465120   -0.70017531845220   -1.53402450979753
O          -0.86559535959137    0.46201362956907   -1.87403084329665
O           1.36411913532512   -0.36715373033551   -1.47589027752935
O          -0.51189863286163   -1.35533134999205   -0.32320450674189
O          -0.24207739513627   -1.73786056099644   -2.70264893306912
H           0.04959009302507   -1.25127191075314   -3.46726892637160
O           0.95267463148113   -0.92529255137839    1.84899841793567
H           0.47919417118914   -1.21613947901608    1.03846373064866
H           1.65391333382640   -1.56211605086063    1.99307669885901
O          -1.79184376681882    0.05885513899078    1.54284507328901
H          -1.18973509412229   -0.14214078038603    2.26782740096977
H          -1.57600854375886   -0.59389435859597    0.84462195897096
O           1.53093048551455    1.32995934233963    0.50826965036838
H           1.65998054675814    0.80182714668826   -0.31536336816466
H           1.47122578255706    0.65100123065848    1.21247244885368
O          -0.85198749729630    1.94613941943263    0.11715919614679
H          -0.93989202021008    1.44022289226688   -0.79407111384253
H          -1.33796216693917    1.32623667380748    0.77744545592742
H           0.18847495184296    1.83512060703350    0.33532245682342
