    19
        -40.91476102
S           1.23499581078631   -0.07374806040387   -0.00539111572913
O           1.12939418646200    1.05175601826974   -0.90981102298060
O           0.34873957832693    0.11067597292854    1.16243041809109
O           0.97472661639287   -1.36347053708659   -0.63134697698980
O           2.69724292823053   -0.13271862011751    0.54377516272744
H           2.83692159393706    0.73942362131613    0.96649323906045
O          -1.42943988261949    0.88606061048530   -1.56580920311903
H          -1.76598960143421    1.75118038618943   -1.32336604275096
H          -0.45838053895970    0.92580675392262   -1.42796201473133
O           2.05427978423003    2.30501770972775    1.34766349929172
H           1.29687515535690    1.89096023308719    1.77903927735356
H           1.79388991145097    2.40613562382508    0.42216061337031
O          -2.66151386446943   -1.25348059578790   -0.65100578938868
H          -2.77413321697587   -1.82103657768982   -1.41690897254133
H          -2.24833640171276   -0.41725046533845   -0.98884323453675
O          -0.82058105039230   -2.03246366056124    0.89334037296222
H          -0.48874369157935   -1.12696102572032    1.28701588051933
H          -1.66564028573978   -1.78694286530042    0.33564656995065
H          -0.05430703129378   -2.05894454173089    0.18287933943520
