    19
        -40.92120602
S           0.79734437351208    0.84456180158828   -0.74500638826018
O           1.27145100069547    0.44395786786781    0.58021359591833
O           1.61260937008140    0.34266097934929   -1.81665619149693
O          -0.62942464496916    0.60318035692690   -0.88545914245662
O           0.93413931484338    2.43566695800872   -0.77113610269096
H           1.81092594503587    2.58900485809626   -1.11033933027827
O          -1.67009570857036    1.65939121054729    1.27323989890591
H          -1.41153666616602    1.39170163963781    0.36120064704921
H          -1.21895785829008    2.48779961121013    1.44623225640308
O           1.09468805389641   -2.17485834514411   -1.10111061872307
H           1.36722664176297   -2.75085880062367   -1.81847492155728
H           1.35710530652438   -1.27058905994211   -1.36105325877927
O          -1.28983898977505   -1.82399392657911    0.02897600360788
H          -0.46046802195503   -2.22035926710521   -0.31436595122984
H          -1.37959443615288   -1.00829347867513   -0.49907174089479
O          -0.51454876282020   -0.50817229092223    2.00227879144885
H          -0.90999744060803   -1.18895718295072    1.28098016907978
H           0.34751581132678   -0.16376857877571    1.50477656739698
H          -1.10854327837964    0.31192562748736    1.94477571655443
