    19
        -40.92025503
S           0.61176405145837    0.42246293399140    0.52401312615071
O          -0.17605379625073   -0.77483281398919    0.77329810292932
O           1.44413557830365    0.26411084837947   -0.66691813424825
O          -0.25919428115334    1.59855575805300    0.43222653815364
O           1.54702276769554    0.68034160033531    1.73910259048156
H           2.35865610726539    0.15033967295639    1.56841017592428
O          -0.55642536408742   -0.66482955480606   -2.08960922188560
H           0.28378159348947   -0.30947591740229   -1.71634645248794
H          -0.69561538237512   -1.50133194689995   -1.63480160906964
O           3.54705736404809   -0.61413573888783    0.63371270455924
H           2.91537715865588   -0.43698061650833   -0.09210595202541
H           4.33001238590162   -0.08948940748539    0.45053394650727
O          -2.76515641801876   -0.65812495248507    0.83222645275880
H          -3.03687259025362   -0.29896025691912    1.67904159332332
H          -1.79044495653866   -0.83626649142447    0.90632559071054
O          -2.15652760695666    0.97612549732192   -1.00117110065047
H          -1.36814345881288    1.39872435586444   -0.40355525517466
H          -1.62020612945068    0.34185360425642   -1.61361424660166
H          -2.61316701293867    0.35191342565099   -0.32076883932264
