    19
        -40.92453845
S          -1.32614924825619   -0.18247862458003    0.72834247868800
O          -1.13995973654479    1.24659975409654    0.50160064321173
O          -1.43145856307129   -0.89786834720768   -0.53816104729388
O          -0.31491878971600   -0.74252647008481    1.60003738615684
O          -2.70676342257025   -0.35584898404197    1.47561844850891
H          -3.35606406311112    0.00842910505130    0.88087001602441
O           1.95407745345409    0.20175178984883   -0.92893817640068
H           1.16511290449541    0.64352841558298   -1.45398087206438
H           1.64765422367936   -0.79025801284240   -0.79421757259090
O          -0.17476169087610    1.13451982294019   -1.90083033967647
H          -0.59412419474871    1.35440179466903   -1.03006602285089
H          -0.67776382305648    0.37113072182223   -2.20804326062023
O           0.90170827761464   -2.04381620943484   -0.47836732045900
H           0.95834409372430   -2.19387668875725    0.47245652372591
H          -0.03727512151812   -1.76099124158539   -0.61303269612468
O           1.47584543396721    1.12427868870331    1.36764565698656
H           0.88270162144043    0.38770496916176    1.65576301829687
H           1.90385674985963    0.63147871729053    0.02400808548010
H           0.86993788529821    1.86384080935114    1.23929508092568
