    19
        -40.92079122
S          -1.34511519331879   -0.49665409547501    0.38963209839762
O          -0.87976060435686   -0.98259600291778   -0.91087935501556
O          -1.19951004334457   -1.48020824254753    1.43155377978418
O          -0.75995564298152    0.79931521634035    0.70431238085330
O          -2.89394608861566   -0.21830924822237    0.22051542716539
H          -3.26738056145928   -1.09092863088114    0.14621569525972
O          -0.42032658802436    2.40950046821919   -1.33823173751071
H          -0.04982788481530    3.23239045226547   -1.01281928210747
H          -0.72691214729937    1.90693208785599   -0.54682121281280
O           1.87461559036644    0.43474232795773    0.52166229664567
H           1.92997303769932   -0.50195225707320    0.82482790984748
H           0.99371198974209    0.72827236730836    0.83099300837404
O           1.38425658001357   -2.02589314168570    1.32891852992696
H           1.63559282075702   -2.42037614350471    2.16621469599404
H           0.40792309045754   -1.92598492538902    1.35618001463152
O           1.00828911335376    0.33942069829687   -1.81333710492407
H           1.55302834365584    0.37035197071763   -0.89673037765702
H           0.22230625776377   -0.31359310088145   -1.55462730435749
H           0.53303795037859    1.23557020959899   -1.84757946247543
