    19
        -40.91033126
S          -1.13600806241169    0.40528478557380   -0.09097122260365
O          -1.98135476978361   -0.64293770823434   -0.58544404334377
O           0.02598376347889   -0.19827283407215    0.72418694758976
O          -0.61067396640347    1.31865184123915   -1.05771180085782
O          -1.88896186307858    1.20747326097884    0.99816760294851
H          -2.44768718337871    0.53630648941979    1.46883840840991
O           2.83213150139162    0.45912551180422    1.17343942955511
H           1.88599063266983    0.61041277474221    1.28781906585053
H           3.17409302669211    0.18746840108910    2.02714611981024
O          -3.28606000961378   -0.87184775080071    1.67291412143322
H          -4.23768537561225   -0.81917900548202    1.55441584334119
H          -2.90920866961413   -1.13203673119367    0.80803477312012
O           1.36195569563689    0.47485516807302   -2.66093081890477
H           0.56309857790833    0.83090101706779   -2.22601402907796
H           1.96718995441113    1.21403214040926   -2.75151293254174
O           1.78749286620964   -1.25629346655733   -0.69670643565942
H           2.51326097541926   -0.82480309561848   -0.21290841609459
H           0.69131593345004   -0.74007268096771    0.11207657277638
H           1.69512697263562   -0.75906812747225   -1.54483916575538
