    19
        -40.92217248
S          -0.26452341821122   -0.48158171702222    1.26702175765680
O          -0.52850862895936   -1.83485195289252    1.66359248034003
O           1.11375727133384   -0.27435454213446    0.80385294053475
O          -1.21668134313542    0.10225273859897    0.33905956843404
O          -0.39157634735165    0.41897593875777    2.58319639129765
H          -0.23465297240975   -0.18350781667851    3.30429810352997
O          -0.55863214947092   -0.36139511340065   -2.21990436239022
H          -1.19898956844521   -0.15830548137038   -1.51537490399471
H          -0.22833269765021   -1.25194692488007   -1.96800938641178
O           0.31792554487001   -2.45820672980405   -0.81377295409389
H          -0.09591962665009   -2.39975420804767    0.06548048935154
H           1.26400910035254   -2.47206987204684   -0.65068772706628
O          -0.44801861491803    2.59157745576603    0.12515299391132
H          -0.93210533383146    1.74642247752988    0.27103596012794
H          -0.17018693740639    2.89126758755401    0.99290377762980
O           1.17274297450894    1.13889392328272   -1.22479004364085
H           0.62173005170187    1.90377260397971   -0.84920243763006
H           1.28692028848773    0.52917458171397   -0.36952661436908
H           0.49104241717824    0.55363706110347   -1.80432603327881
