    19
        -40.91597559
S           0.95642155318834   -1.32659720474350    0.83374549551860
O           1.49678160635252   -0.46722423794021    1.87240819094018
O          -0.51892993168035   -1.29536322373535    0.85185686310463
O           1.48965301261669   -1.08110395775370   -0.47760639550517
O           1.34093832202094   -2.80816345525325    1.22667775765436
H           1.05358738763264   -2.86369614116337    2.13274796505141
O           0.05085992202889   -0.54280097874668   -2.59036991109778
H           0.55197262173904   -0.82740925939062   -1.78915813484854
H           0.71453785848317   -0.20807533844199   -3.19659021252540
O           0.84673118611500    1.96401498230514    1.31467884942211
H           1.22933938886405    1.06592723916736    1.51029576796630
H           0.94745629813325    2.47731476234147    2.11916496972869
O          -1.79141247290971    1.11654126076638   -1.78987681282022
H          -1.07150389695057    0.51668383769942   -2.13565996104070
H          -2.61992167125391    0.70064437431494   -2.03673982489680
O          -1.41609177493363    0.98725636071479    0.71063494987784
H          -0.56857759634349    1.51874900231130    0.93736146734964
H          -1.59912470022804    1.10926311175250   -0.30255600155590
H          -1.09271711288085   -0.03596112421732    0.80898495766480
