    19
        -40.92453851
S           0.61375268346676    0.49607610476885   -1.30396848542928
O           0.59944370532332   -0.96205499682535   -1.34943962118121
O          -0.74387457460097    1.02506412385475   -1.24132396550750
O           1.45916049490217    1.01030395399662   -0.24708997827229
O           1.24443224773352    0.99412901933329   -2.66373987330067
H           0.67215029468495    0.64775400553850   -3.34222136667407
O          -0.77178811557571   -0.64379920942834    1.92701009794108
H          -0.79496038600115    0.39305088915919    1.78492841871843
H           0.22679856938110   -0.91519799051505    1.77025299143731
O          -0.70205620003354    1.78209247189161    1.24589983095973
H           0.22020536753190    2.05978292283907    1.29144518385146
H          -0.85273977946958    1.63536375839459    0.27869514216837
O           1.59711589816906   -1.13060284703325    1.21663554696056
H           1.53721429409524   -1.77585377638437    0.50213684972447
H           1.74337373114149   -0.27510624743167    0.74305928538053
O          -1.73246055294579   -1.35811791715231   -0.28963874050602
H          -0.86681993308933   -1.37903413651767   -0.77177783005908
H          -1.27748996985858   -1.02674399975150    1.09582688669491
H          -2.17145775486206   -0.57710611872456   -0.64669038290689
