    19
        -40.91373416
S           0.04291015983130   -0.53810646019308    1.58052259874523
O          -1.10108479252794   -1.54022091806957    1.60024451302227
O           1.10367276247628   -0.99106384644021    0.72066153057017
O          -0.43610125595150    0.78372672239529    1.34316407327913
O           0.57464936696964   -0.60619084871581    3.05650194820307
H           0.97525091243420   -1.46320255855440    3.19335180388277
O           0.58233512300725    1.43139544386573   -2.46182310846001
H           1.22309023680796    1.47455090859957   -3.17323023099619
H           1.07222460065617    1.62117471402588   -1.63146077453094
O          -0.39948983780172   -0.92381667094408   -1.62799920325239
H           0.25886045537440   -1.11931415082498   -0.94776725965290
H          -0.11412243026187   -0.08184950779323   -2.04839341890169
O           1.79310062436167    1.56619649012561   -0.06067545133320
H           1.92743327861208    0.62157786985096    0.09547468799955
H           1.02881261497312    1.78810153508355    0.48673277850210
O          -2.49565121281344   -0.52567684688256   -0.17136746353358
H          -1.81397100697404   -1.19755987316273    0.88610614735602
H          -2.40069186730270    0.40655264490330    0.05353083065922
H          -1.82122770328589   -0.70627464724986   -0.89357401146791
