    19
        -40.90906087
S           0.38464882797559    1.44199143318276    0.77160753450657
O           0.92111843012252    0.19084486169054    1.24741458536921
O           1.37880177304287    2.10441286080658   -0.18049820646801
O          -0.91901106114592    1.40909885871009    0.21544962392782
O           0.39182370652165    2.43319374563446    1.99243068349751
H           1.25587631588078    2.39411564730718    2.39922530091482
O          -0.83429462866697   -1.80591965231651    1.82445253021938
H          -0.26162874274814   -1.03286705727266    1.67928073461284
H          -0.27959176730161   -2.47557741380092    2.23035824151560
O           0.75894158358305   -0.89554637297687   -1.33467941353726
H          -0.09539587131050   -1.37390407421966   -1.27049679388074
H           1.00149798136763   -0.67436222861658   -0.42714020470009
O          -1.56536367907546   -2.14254078290658   -0.78395938730437
H          -1.75619322641689   -3.07440458650552   -0.90270827136719
H          -1.49432271864293   -1.98924130015790    0.17828318456114
O           0.26960418791506    1.46909975339699   -2.30674254871856
H           1.00271333634667    1.94681189553535   -1.15551677760836
H           0.48314178512887    0.50427247708656   -2.16921789816681
H          -0.64236620261737    1.57052192539286   -2.00754291737195
