    19
        -40.92071437
S           1.41549123743443   -0.30256365233145    0.32000392147610
O           1.01796780804469    0.11280109526346   -1.00530759850947
O           2.14911796761314    0.70057384195409    1.05699449650985
O           0.24878244071689   -0.79271291778958    1.08052338491911
O           2.37588283441390   -1.54734001589011    0.16236543156592
H           2.92006497716264   -1.51679174294024    0.94427144976881
O          -1.53461358744427    0.04791709878367   -1.62491211749369
H          -0.55165767868819    0.06914594854551   -1.68541154671451
H          -1.73111634820400   -0.88709037859213   -1.40386421878227
O           0.53903539139965    2.61418415958730    0.28440347737998
H           1.23635643178891    2.03859503802322    0.67895153730545
H           0.73307478443117    2.63104784148581   -0.65739466154491
O          -1.44117504161392   -2.29569081644286   -0.36194846152643
H          -2.00459421653389   -2.79529701151564    0.23080533343124
H          -0.74329202828949   -1.89064031371323    0.19050559855068
O          -1.42144926013603    1.03828958000831    0.64043739266019
H          -0.75182516102128    1.81401728627770    0.53571723531683
H          -1.62573955712676    0.68421744632492   -0.37967064348045
H          -0.83031102294454    0.27733752459598    0.99352998685374
