    19
        -40.91792407
S          -1.18569496170416   -1.18689140690623    0.20743656821347
O          -0.73846876393322   -1.27299077212679   -1.17278728949200
O          -0.07262071653433   -1.19722520954300    1.14503097517178
O          -2.08317846044242   -0.06507189805967    0.42177426861370
O          -2.02136586743087   -2.49782006094910    0.50946174040954
H          -2.81570716048376   -2.35561150516210    0.00411981808617
O          -0.09229239433895    0.98686790508618   -2.18370665017070
H           0.42862820544760    0.76188912119810   -2.95807438110764
H          -0.43399466389728    0.11616800643490   -1.82454687449296
O           2.23640826099089   -0.59219711407321    0.18744659199742
H           2.87014196934970   -0.79330006404276    0.87866128142950
H           1.36411252355838   -0.96903824334566    0.48854960216256
O           1.25157738832905    1.71173942095272   -0.19157919874691
H           0.69800472210971    1.52405617678408   -1.06067487478644
H           1.78222090192053    0.84259132702931   -0.04731292530417
O          -0.43792835569716    1.47123318179238    1.64465504412375
H           0.54042888471192    1.72618660267941    0.59455549608292
H          -1.20415003360874    1.03904027834023    1.17618527165689
H          -0.08612145829775    0.75037425396169    2.18080552608296
