    19
        -40.91904965
S           0.23706413165291    0.02442756119796   -1.14279779668796
O          -0.70828201152090   -0.96242660103320   -0.43072937359129
O          -0.23330787561615    1.36044382089382   -0.97611920095501
O           1.57549045796343   -0.25027788517246   -0.68382944676167
O           0.12350872919294   -0.37850835224011   -2.63409982044394
H           0.51021560286587   -1.28788575333152   -2.68154920881555
O          -0.81313042237563    0.90146121680102    2.69411553171143
H           0.03345214935901    1.18732560870468    2.28308285148174
H          -0.60124258580806    0.16328605505641    3.26722715022507
O           1.41123213278223    1.56730702883405    1.34033163451977
H           1.66926581241474    0.86181691206077    0.72595494921870
H           1.11328358321009    2.28765932438376    0.77785891308791
O           1.24623465852028   -2.62093355909766   -1.92825334004967
H           1.73703236367560   -2.00745224507756   -1.35827927494515
H           0.60439915896930   -3.06169110391624   -1.36458563558119
O          -2.37287594161177    0.58165676102576    0.59163547864038
H          -1.49641004031289   -0.41947748388458    0.00099869101169
H          -1.93571576684141    0.72103335230909    1.47075921133220
H          -2.10021414656174    1.33223535248762    0.04827868661753
