    19
        -40.92079062
S          -1.47986772412812   -0.13718146408489    0.01907841120432
O          -0.58526245953835   -0.09743423038567    1.16756883414097
O          -0.96739395659669    0.68761401491765   -1.07700940471051
O          -1.83427929426146   -1.46584217193181   -0.40873257131648
O          -2.80858616359478    0.56973713233161    0.50846759900038
H          -3.40949848090392    0.43465390801513   -0.21757932417836
O           0.59558242038676    2.20447722519403    1.59882614441251
H           1.14182987215268    2.11887541000242    2.38278634302658
H           0.01265681536099    1.40911401593776    1.57426686243880
O           0.42507894244007   -2.33612175117584   -1.46772396167251
H           0.38878571187483   -3.29423823164946   -1.49253655060538
H          -0.45992899590330   -2.03706802114362   -1.16558859070526
O           1.79251523963135   -0.84418885522564    0.22082839688810
H           1.49859300607574   -1.47908944097936   -0.47406507838960
H           1.00705006540224   -0.74845622743031    0.79674756155466
O           1.36694487143065    1.42657815739648   -0.71440075371174
H           1.20873268069859    1.93241318285636    0.15125650788058
H           1.72320611243457    0.47314416413379   -0.39560068483486
H           0.38384133704077    1.18301319321695   -1.00658973041937
