    19
        -40.92453852
S          -0.53562690416628   -0.88990855333421   -1.11507898467193
O           0.92123659562703   -0.94181027543278   -1.17098454056259
O          -1.02541598385927   -1.43989042813738    0.14363840718616
O          -1.05464998988122    0.43530332126949   -1.38102537179824
O          -1.07531529317125   -1.82164601796182   -2.27081151375714
H          -0.72470544963634   -2.68550458929592   -2.07445840534770
O           0.69836851171723    1.37599809766620    1.53048813865855
H           0.93937600888785    1.68179939890578    0.55898915650794
H           1.08070138343113    0.40527492194748    1.59825630651202
O           1.10721297061063    1.79878263997276   -0.92058220000437
H           1.74089380656547    1.13042068211942   -1.20724744729140
H           0.23967435738247    1.44375748679926   -1.23494485867877
O           1.40060852755525   -1.03849702095585    1.37435041556823
H           0.62599427327164   -1.55186135713847    1.63239257714597
H           1.38944763852420   -1.08244206098495    0.38434503492718
O          -1.73993271331753    0.80576464031356    1.24290608734864
H          -0.33992117024097    1.24170434249743    1.52145290383985
H          -2.04177196292206    1.25995380943689    0.44763544339326
H          -1.60617461633091   -0.12719904765137    0.94067883099182
