    19
        -40.92136396
S          -0.09059256435661   -1.13632419106589   -0.79049345461786
O          -1.19005985762591   -1.33657341970599   -1.70157034448753
O           0.75740445705104    0.00432015220882   -1.17977830046693
O          -0.47889102274861   -1.03759363289248    0.59836113972389
O           0.85146717960326   -2.40886983119796   -0.90975507192380
H           0.72209257343083   -2.71168505376174   -1.80411209225088
O          -2.52653428718297    0.60798242516482   -0.52942948099261
H          -2.16712572554039   -0.11056626883665   -1.09794751691774
H          -2.77345747020288    0.17833720936476    0.29428849207010
O           2.49140706934832    0.02553475523118    0.86942519877017
H           2.67009306951807   -0.89080895056085    1.08731533586325
H           2.00630527736407    0.01234133792327    0.02282168217098
O           0.29709237214080    1.04772082222942    1.98362128583203
H           1.25661662198780    0.89592470818572    1.83544380253895
H          -0.09682385627648    0.18070819419063    1.73419475087827
O          -0.41066193364307    1.99404844973013   -0.19438343985248
H          -1.35554692911540    1.61856536632450   -0.31738324443021
H          -0.11663143317071    1.74332156265554    0.82932773185824
H           0.15384644938623    1.32361637481489   -0.72994646377244
