    19
        -40.92453850
S          -0.01024203084514    0.48032957221406   -1.44609055177592
O           0.29371447876728   -0.94644635303662   -1.45765065681513
O          -1.34316705319070    0.72138589108002   -0.90570020549837
O           1.00955010799715    1.25981388952231   -0.77628633883827
O          -0.02468827442467    0.96170300547147   -2.95036387036626
H          -0.70505390752832    0.44260580424129   -3.36931578702219
O           0.11802725348378   -0.59527957956400    2.08672484173940
H          -0.54409971285457   -1.15472089379482    1.50243633483188
H          -0.18944821710484    0.39539498593559    1.94387735380911
O          -1.36564914284519   -1.70870245544958    0.38171577175595
H          -2.06765777502272   -1.07468586786379    0.19378001096643
H          -0.74231826861695   -1.59815351950273   -0.38079397368109
O          -0.61018380894686    1.71293683899210    1.38345468311625
H           0.18074967910562    2.17816808174315    1.08716475161506
H          -1.05108140524080    1.44329533370657    0.53924349230082
O           2.13436158356336   -0.65117762086721    0.57538434360143
H           1.90669270041208    0.16497472478397    0.06587860798317
H           1.03305718473665   -0.66911471495251    1.58370395307621
H           1.97743660854723   -1.36232712266569   -0.05716276080156
