    19
        -40.92453799
S           0.00591563340918    0.71334360222766   -1.34678820282324
O           0.85452821248478   -0.46478663754038   -1.48288274745875
O          -1.37135739613600    0.32887341125877   -1.05714091125966
O           0.52950808968054    1.66619851876077   -0.39073380405059
O          -0.00496572935468    1.44444311872859   -2.74695271339731
H          -0.36944009655703    0.80751529441779   -3.35467569635866
O           2.14456325496479   -0.22043851221108    0.76116450139593
H           2.18723854937932    0.74235867700274    0.79328550555658
H           1.81504621150866   -0.40778388590829   -0.15331656266937
O          -1.16964340803308    1.26170596737625    1.53140775073424
H          -1.92985502194563    1.03610458571356    0.98221096006125
H          -0.51430220455247    1.61862811430016    0.88295813218692
O          -0.91342449006028   -2.02229140582747   -0.06646246812122
H          -1.26242176713321   -1.19272613153089   -0.48145362525620
H          -0.15543959128944   -2.24932925948276   -0.61796857740744
O           0.04469932804896   -0.90213781347985    1.97670245133294
H           0.99099368700025   -0.66110020374243    1.59828971020336
H          -0.49519251414065   -0.00647788358618    1.94342982089615
H          -0.38645073733053   -1.49209955654489    1.22892649639315
