    19
        -40.92136393
S           1.31675394088861    0.42618308887570    0.09204799593400
O           1.68865972214097    1.56564212846377    0.89347514950921
O           0.72382446495614   -0.65957287599469    0.83989237116421
O           0.46607460663024    0.80080173846788   -1.05145408071797
O           2.64973897990449   -0.14334418789785   -0.55587140864278
H           3.21677745990140    0.61889954659059   -0.63124889901694
O          -1.60534347668504   -1.59279744068585    0.08286711071687
H          -1.31099894284699   -1.83099639909452   -0.82391399415096
H          -0.75215148924899   -1.47328317434360    0.55921923005867
O          -0.04345710418989   -1.62751209374503   -2.07624410522355
H           0.19634853343058   -0.70497688537485   -1.86735309206523
H           0.76363765328117   -2.13747505142351   -1.98945706253464
O          -0.66614591153579    1.51084985673770    2.07486042601933
H          -0.56158210503840    0.73721111479517    2.63579854677675
H           0.23388633505889    1.69905466046755    1.72405428605199
O          -1.85065861975186    0.86691518975718   -0.09140551652825
H          -0.98455664966462    0.96856234442379   -0.63417846015257
H          -1.92161201259062   -0.22205768727377   -0.01404986459464
H          -1.55919537488410    1.19789611776163    0.83296137766411
