    19
        -40.91520661
S          -0.17158019344291    1.14218937314103   -0.47867681730237
O          -1.42860468760154    1.19357588426240   -1.15091768645700
O          -0.37206948954434    1.30793955532745    1.02104860448220
O           0.61576999029199   -0.04943045341707   -0.73325565245428
O           0.69736897205409    2.37522278374150   -0.85328629642770
H           1.31302178571212    2.11385121042594   -1.58286931742882
O          -2.07780046855814   -1.30358821419136   -0.38055857065355
H          -1.55467831756405   -1.79044947170151   -1.02103812076534
H          -2.04320853358415   -0.37414854590318   -0.66533401708361
O          -1.28366277229292   -1.88018458259420    2.13370829012635
H          -1.92403029222231   -1.48304484716676    2.72653474381507
H          -1.62728874721863   -1.73419334243046    1.22618011581029
O           2.23808644152652    1.07785410583156   -2.51188899040407
H           3.16576037071540    1.00612060030022   -2.27341852913355
H           1.76652525308688    0.35793277096576   -2.05604851526720
O           0.98901642242390   -0.57802393356118    1.91751309334428
H           0.22551091059414   -1.17025788071728    2.14675777308706
H           1.24019031018852   -0.82392794484053    1.01661531295310
H           0.23167302545876    0.61256292247176    1.51893457974383
