    19
        -40.91667362
S          -0.26439437711223   -0.60823604061569    1.03921760632074
O          -1.10057029634828    0.37949410243088    1.63615410192916
O          -1.05007878519902   -1.48546678937896    0.06209161635611
O           0.90489694055424   -0.09066212920847    0.35220202085590
O           0.19440925993588   -1.59883682398564    2.13127472925386
H           0.96895159698180   -2.09376687760197    1.76309463337940
O           2.33314504636092   -2.27327689563670    0.81026116929816
H           3.17773067763203   -2.13837889799802    1.24686498652445
H           2.07567153222785   -1.42229315771598    0.40978261194950
O          -1.66440007583070    1.88566658787837   -1.69043986280008
H          -1.09621752396347    2.27973999751252   -0.98775446216569
H          -2.55098470592197    1.84861145583671   -1.32766883064585
O          -0.11814764525144    2.54875284219308    0.38432492346098
H           0.70655885223591    2.07655412961204    0.23253194433330
H          -0.59735026569048    1.99265178631301    1.02129696379871
O          -0.48182505214356   -0.41616352468130   -2.13465444541462
H          -0.98547836883449    0.44082380456195   -2.10373666039572
H           0.43326210948213   -0.18700404665413   -1.94503341304494
H          -0.88517890909519   -1.13820951286374   -0.89980963299469
