    19
        -40.92045302
S           0.34680366960920    0.94404834952736   -1.24349655310510
O           0.53419142856245    1.92407269036285   -0.19031882425960
O           1.19431658814235   -0.22969111801725   -1.05202054363617
O          -1.04355407489514    0.56340284505965   -1.42875698476961
O           0.81540375966094    1.64655061514603   -2.58282064519669
H           1.41574918392659    2.31930298730457   -2.27553129612236
O          -0.74923690110999   -1.09788371448225    1.69409250514391
H           0.26791498767410   -0.95842176637957    1.74852365582116
H          -1.14707993013745   -0.12229560932474    1.59014016897701
O           1.73106738938245   -0.66150245164477    1.43251816421615
H           2.39263812631859   -1.35523977405552    1.46331864825213
H           1.63569592946977   -0.39761367280865    0.47777135149311
O          -1.55257021419775    1.21779606641573    1.16614771113096
H          -0.72113855814257    1.63459861196250    0.82274602835312
H          -2.08317443148511    1.10483687819689    0.36670233100597
O          -0.94338308471972   -1.90587624333541   -0.68513017316118
H          -1.15405681394155   -1.02305104904423   -1.08553498221940
H          -0.03620568949559   -2.05942188538229   -0.97493011440191
H          -0.90338136463719   -1.54361177946362    0.75657956248559
