    19
        -40.91955067
S           0.52227222768837   -1.03063601859109   -0.16607000236583
O          -0.46561235757428   -0.66821689377549   -1.15610946666330
O           1.56596797601059    0.09863816338617   -0.08276824949801
O           0.01050703433494   -1.34771907419954    1.12555848369575
O           1.36843719955154   -2.20258963379107   -0.70251811387800
H           1.63085259800299   -1.90556704149587   -1.61020446126428
O          -1.37941227323586    0.73687645426047    2.21015266194206
H          -1.99885595446611    0.84640614105033    1.46118858797925
H          -1.01014854793107   -0.15315308994001    2.09544936520763
O          -2.66252114170494    0.58631138931062   -0.16564852925229
H          -1.90242590694142    0.17518821108914   -0.61447575199922
H          -3.40286670978132   -0.01083956727493   -0.28727305055083
O           1.59321065044573   -0.79818626157119   -2.87525757169138
H           0.67786284199483   -0.57950413368527   -2.63551303150693
H           2.12643303602208   -0.03207351810816   -2.64559837067704
O           0.79487083355235    1.90600143347159    1.47052874594292
H           1.26431667598461    0.87875061781486    0.54195729677564
H          -0.09977227499392    1.56679682379141    1.79530678171453
H           1.36688407303228    1.93351598826144    2.24129467609603
