    19
        -40.92217141
S           0.85698691938563    0.53330786025868    0.94333118474675
O           1.31512313015501    0.23342217189949   -0.41972699009167
O           1.02898014533558    1.91103848389620    1.30462609929274
O          -0.46300854752409   -0.02289459093069    1.18096394665623
O           1.82165387629179   -0.31843943066057    1.89342307366901
H           2.50818612525184    0.29033745202315    2.14967820838467
O          -0.43130054842134    2.41151803630350   -0.89890997885259
H           0.02105037718747    2.40245601291381   -0.03681653304354
H           0.26851113634139    2.37506600341625   -1.55521499170023
O          -2.10402959748838    0.32822937894373   -0.91191828169582
H          -1.92932478939074    0.18266658755203    0.03458899235765
H          -1.69388103958470    1.20537172774709   -1.07976337848647
O          -0.20060303130751   -2.55730167556556    0.59689053653650
H          -0.36542114428014   -1.68183949798654    1.01691712938888
H           0.65546099392302   -2.84817906883169    0.91714061795238
O          -0.28479141343643   -1.23939785393336   -1.59765788119968
H           0.47373136145210   -0.61298256446294   -1.21258265738131
H          -0.32623860675961   -1.96002809039341   -0.88440928559189
H          -1.15108534740390   -0.63235096118727   -1.44055981076122
