    19
        -40.92174056
S          -0.50248057124362    0.72668249092496   -0.14635060084537
O          -0.14165230515864    0.36677121425947    1.28303214160769
O           0.66032576321945    1.23977575875154   -0.83963643446487
O          -1.14634455360721   -0.37616891707354   -0.79760767200794
O          -1.52328974086768    1.87330260876250    0.01878636594180
H          -0.98750895510661    2.68641588145099    0.20999846207068
O           1.64079055436922   -1.25227877054072   -1.23227254170869
H           1.47684711951158   -0.29491149468350   -1.21525612729452
H           0.93763579085428   -1.62909520710328   -1.76778237340856
O          -1.33403926486057   -2.81367025495409    0.32801144662176
H          -1.38475381776728   -1.98970397195084   -0.19274514051409
H          -2.14600570676935   -2.86513884442973    0.83497855908806
O           0.34267024733641    3.67220204653347    0.15557019655167
H           0.81987837132187    2.90982941088067   -0.22125053240537
H           0.33773134349390    4.35856958477707   -0.51645636413888
O           0.95870775394507   -1.84526434049151    1.26494934117769
H           0.18077426054739   -2.41596805381154    1.06616373682166
H           1.43858809137344   -1.76270252359201    0.40719179813325
H           0.37212564940951   -0.58864659771125    1.36067571877088
