    19
        -40.92079029
S           0.63463112354085   -0.92784235961845   -0.97184342867681
O          -0.22080057278013   -1.58652959799665    0.01748109931213
O           0.19601577343532    0.43912040388133   -1.21722394555220
O           2.03528361834135   -1.05274696269592   -0.66142833120174
O           0.38495948694319   -1.69011504485895   -2.33624208213284
H           0.77353131316739   -2.54598342365545   -2.18448507480865
O          -2.39881353202723    0.81588611246596   -1.15918327724716
H          -2.57207489703456    1.73973572719158   -1.35098191144677
H          -1.45246883126486    0.65449821474562   -1.38575976315669
O           2.16350209726244   -0.00934591533181    1.76314133776360
H           3.07411323157879    0.24330849286894    1.92668476783369
H           2.16163691382129   -0.48225031037102    0.90271397083302
O           0.15674213914496    1.59789829166207    1.18325176841551
H           0.28836486355998    1.44121137402170    0.22620477347097
H           0.90973891189174    1.12079691564139    1.60495199917288
O          -1.74424603356448   -0.01395737560598    1.17191400903475
H          -2.23473732154009    0.31837845980093    0.34772107172628
H          -1.15455592477512   -0.79222148346925    0.77473928652077
H          -1.00082234969247    0.73015847132072    1.34834376014133
