    19
        -40.92071445
S          -0.05847229924404    0.44220975253291    1.41311343840037
O           0.84974646964060   -0.59811246443375    0.98881473289697
O           0.58771209195199    1.69339718180245    1.73642417917970
O          -1.13527130346965    0.62590050167613    0.41986370357088
O          -0.77374030095729   -0.05626191018019    2.73093974408324
H          -1.00093003601578    0.74983082958261    3.18583560911461
O          -2.08100897913113   -1.67006720349926   -0.59585034938184
H          -2.93788045063955   -1.51237309417063   -0.99509402830561
H          -1.84737006606500   -0.85748773748694   -0.10462420840628
O           0.47080890758032   -1.71035831076833   -1.36156184685163
H          -0.46365679760806   -1.98934792879976   -1.26064008812490
H           0.76294174547849   -1.54186569581050   -0.43609592121502
O           2.15988251645334    1.55510927482449   -0.35251265156233
H           1.65925482747137    1.78301469474740    0.46626153667234
H           2.69339661928749    0.79128148634031   -0.11403254895674
O           0.18681280503918    0.72233600939559   -1.71941371164748
H           1.04910171516603    1.12965551755311   -1.33031631949135
H           0.35242786862714   -0.36355532033955   -1.73282753105604
H          -0.47375531362971    0.80669443679944   -0.93828373894338
