    19
        -40.91191372
S           0.06903052474917   -1.19927838045844    1.11946870654437
O          -1.30913645839103   -1.43245011496556    0.64246965729437
O           0.97047910337570   -1.14364328018636   -0.03279051227128
O           0.19588313655984   -0.09300879998813    2.01326959407310
O           0.46262812661952   -2.49328342570072    1.93376840211282
H           0.33805157754810   -3.23059149548148    1.34210491323951
O          -1.48847109546466    1.42830975885381   -1.72033566839186
H          -2.41044820757400    1.61112921438740   -1.52807272848139
H          -0.96288340406362    1.74344346606303   -0.91790105237139
O          -0.15462992377921    2.03799232835502    0.39461437518057
H           0.79615574757100    2.02081465391635    0.16214684613497
H          -0.22279775797962    1.38136466395717    1.10997459745668
O           2.38000961621043    1.16592159787465    0.13697217599833
H           2.70393925671998    1.20018524772628    1.03942669209752
H           1.99676573407954    0.27722581720216    0.02726718004035
O          -0.93031279916000   -1.00530772043596   -1.71273777527372
H          -1.28355579369925   -1.26036087128068   -0.70472061523388
H          -1.18678186814827    0.02149231604179   -1.82173874714626
H           0.03607446477066   -1.02995497588817   -1.48318603099495
