    19
        -40.92453829
S          -0.29790375343852    0.76390260879583    1.28464532163240
O          -0.89147003707951   -0.56262797280428    1.41206380982951
O           1.15297390771595    0.67265985950548    1.16771850938709
O          -0.89391944144173    1.53771938947664    0.21591565585071
O          -0.60725237900706    1.54004600643287    2.62496675130362
H          -0.18989954664213    1.02538313027733    3.30964962485853
O          -1.97197478066342   -0.41044162514152   -1.12146641425580
H          -2.15854867295120   -0.98969023088291   -0.37306948717095
H          -1.72848381868115    0.44727541637319   -0.69423835678123
O           1.01723382684415   -1.94526464323461    0.33497328253084
H           1.75614860397334   -1.40529776897632    0.63920906979616
H           0.24192885175917   -1.58033467345722    0.83317690706398
O           0.35349929971561   -0.99253311693357   -1.90069793649049
H          -0.66011311726623   -0.81366842563062   -1.71104767010006
H           0.68637372558183   -1.51497014364536   -1.05833395762145
O           1.32911621364379    1.26723777202859   -1.35752775906403
H           0.81274651676201   -0.05529612234432   -1.81811190515412
H           0.60482458364325    1.90232150947254   -1.40123101441354
H           1.44472000752487    1.11357902080478   -0.38659444093808
