    19
        -40.91451123
S          -1.50318155710119   -0.30753658690913    0.17954672552554
O          -1.32414100482503    0.99641269547662   -0.57647670794637
O          -1.47879080241841   -1.41259806945300   -0.72605670004044
O          -0.63160693922807   -0.35811835538329    1.31338559190533
O          -2.97317695553964   -0.20361561334264    0.75096553015121
H          -3.58393408216337   -0.40766486538551    0.04511795428746
O           2.18980578027908    1.63387007760774   -0.56028330897994
H           2.32575472626180    2.13964532337365   -1.36326889019363
H           1.88102761016484    0.74403055593929   -0.84634354225412
O           0.94862087710576   -2.52143476681330    0.70944018959027
H           0.27534783298878   -3.06950898890706    0.29891762738165
H           0.46981315141914   -1.81412899259598    1.16730294821720
O           1.16220154644901   -0.71930071072489   -1.30489462455158
H           0.22660671305892   -0.86965891208950   -1.47673693419828
H           1.40382465123786   -1.39982568297976   -0.64630779161956
O           0.16001547303085    2.24176742647965    0.94361650155338
H          -0.73002536461244    1.64815762198159    0.04226306532508
H           0.16443646403869    1.54346836655713    1.61255970430368
H           1.01740187986599    2.13603946717014    0.43725267155690
