    19
        -40.91790596
S          -0.85820889335680    0.07555752565641    0.55755168150827
O          -0.51917512929926    1.26903795781847    1.27785754219412
O          -1.32574712249831    0.42070539967117   -0.84417884855581
O           0.18339443698183   -0.91863050419642    0.51488940287800
O          -2.13624912255828   -0.56526127319615    1.18345256946160
H          -1.87833351139633   -0.77506122357990    2.10539870708915
O           1.10279463785248    2.12368633389536   -0.74598357369659
H           0.48031301693778    2.51996846405507   -1.35938112940153
H           0.61536730166199    1.98481698549952    0.08076266006614
O           2.03344010276360   -0.35150888074119   -1.41906536081870
H           1.70227917053807   -0.71240156077708   -0.58278033948677
H           1.95169181831240    0.61432658159482   -1.31331699594503
O          -0.50773395432792   -0.71296315498984    3.23837648580013
H          -0.31369366173036    0.22939294806802    3.17552420388630
H           0.15987143307134   -1.15849307674529    2.70516876561235
O          -0.20186886638802   -1.06036697452224   -2.50652511531708
H          -0.31107243863866   -1.96905854742083   -2.21457251009358
H          -0.91882483333791   -0.21095372611006   -1.58961321697449
H           0.74175560539148   -0.80279326403402   -2.26356495825255
