    19
        -40.91892614
S          -0.68597875392887    0.02117174557129    1.26046722873181
O          -1.27770815409031   -0.64442896617986    0.12653288291528
O           0.06098261806226   -0.84445418175744    2.14756023872031
O           0.12478116288773    1.17638386876629    0.83157863698234
O          -1.87617161740947    0.63423413394549    2.10193008623210
H          -1.48837166938893    0.84187470679887    2.94705596408826
O          -0.21748529512581   -0.35918643662105   -2.39416243954795
H          -0.67202183894801   -0.94520740804714   -1.76831330518183
H          -0.74964801617990    0.46746505027516   -2.35421499668101
O          -1.66287663031748    1.60958638002181   -1.31044688555614
H          -1.84367662231678    0.85204520083317   -0.72903366846604
H          -1.10904576908673    2.19381003119986   -0.78432208286007
O           1.90559854063670   -1.81573945428914    0.59831766298150
H           2.68544292060206   -1.97380557468548    1.13489959603237
H           1.17943040774120   -1.56987314999965    1.22729851243176
O           1.67127168620141    0.24437554142045   -0.86983666739697
H           1.08680119801684    0.75443136952761   -0.15971978586654
H           1.90439806706493   -0.62498967361085   -0.38179364105697
H           0.96427778559254   -0.01769318316316   -1.62379733650524
