    19
        -40.91226056
S           1.80013957740689    0.12908860348133   -0.09038748434428
O           1.47777852416755    0.86361847471247   -1.27268961569658
O           0.95860489523105    0.34583664525355    1.04878068331927
O           1.95136380939972   -1.35945526511106   -0.38580314911647
O           3.26534666243632    0.50396227766005    0.33383456331604
H           3.77735677560876    0.54903378659595   -0.47078651897097
O          -0.49246094899738    2.36429167398168   -0.10678646388934
H          -0.06278587314594    1.88579340381917    0.61513126659461
H           0.03003867068641    2.12149618213361   -0.88254705444172
O          -1.42708223087548   -1.04951868842239    1.07508044592169
H          -0.64183207036882   -0.54195313464376    1.33054651259631
H          -2.03834254799584   -0.39784898788188    0.66145838134984
O          -2.78360200535565    0.95689408122759   -0.06896298373750
H          -3.43554352100829    1.45659331671608    0.42469752962801
H          -2.00858876908267    1.55102423492930   -0.18332432677670
O          -0.28134337046264   -2.37584673791825   -0.79025266372032
H          -0.83821087463988   -1.89665861528473   -0.08849513992833
H           1.02078521239463   -1.80277216057874   -0.60763963987304
H          -0.27162194540593   -3.30357909067337   -0.54185434222330
