    19
        -40.91893377
S          -0.30852537339072   -0.19899452839587   -1.69726050575006
O           0.97373100444859    0.36483679942085   -1.24881216447312
O          -0.21850598427961   -1.61344723566514   -1.95732644428915
O          -1.38834783916384    0.19720324085106   -0.81465870932135
O          -0.61073033006713    0.49494537867390   -3.09285981334827
H          -0.16521411233174   -0.07219691742631   -3.71495354286093
O          -0.55798809308194   -2.02692174000702    0.62714647692329
H          -1.35693186511135   -1.49400295260129    0.68198198837421
H          -0.36263509759952   -2.06674789411616   -0.33111005508452
O           1.35930957326701   -0.98557025961852    2.08319855342469
H           2.15555912067181   -1.46806488999624    1.85233995247128
H           0.61329522733703   -1.43993107322690    1.60708532119233
O          -1.22721500100058    1.93103844490623    1.10298547714683
H          -1.50827781914045    2.78348910652260    0.76555864673038
H          -1.41634042903392    1.27128167651504    0.38653651516358
O           1.22978726916957    1.30122780666801    1.01157256459042
H           1.33167991119732    0.42195599694663    1.54991807164453
H           1.17636519083009    0.95283659988832    0.00070013157965
H           0.28098464728298    1.64706247066149    1.18795752587139
