    19
        -40.92453847
S          -1.29189863269348    0.69376419222906   -0.41521285365188
O          -1.23429341491392    0.70540200629040    1.04239548713559
O          -0.19085427566571    1.46322798769777   -0.98310591853784
O          -1.36972308664539   -0.64663879753771   -0.95694869403645
O          -2.63027248065645    1.42237887310291   -0.83090031067375
H          -2.55289946609446    2.30256974531060   -0.47420710641729
O           1.28789517478876    1.23234729880157    1.32385402079504
H           1.38889704420649    1.79816266288603    0.54938336634405
H           0.30755502904364    1.10425035942500    1.39190583050728
O           1.21322328679137   -0.54253238758203   -1.85800337237154
H           0.48569668732951   -1.12180425763859   -2.11283419021508
H           0.76741913874466    0.32074887711415   -1.66857688420286
O           1.79589565808613   -1.10393376681184    0.52903431838939
H           1.67764657258943   -0.95204133211281   -0.50017090136648
H           1.72813377699652   -0.14424097683836    0.93796522983949
O          -0.50398644306796   -1.95377784936603    1.11347023593126
H          -0.94555487617557   -1.64031325311804    0.28627847255750
H           0.91438580653338   -1.57845094121426    0.83469349614017
H          -0.84726550920583   -1.35911844066492    1.79097978382510
