    19
        -40.91620867
S           0.37972099501478    0.80102434768128   -0.64191108543136
O          -0.90362918154786    0.30242811872996   -1.28196154573406
O           0.08469028246260    1.75279906043865    0.39192950593903
O           1.19421792594853   -0.31044972964043   -0.22392873162943
O           1.08679943553007    1.53379819300708   -1.82556358075497
H           1.92719272418391    1.86971513158460   -1.45051492522497
O           2.88859216198557    1.88501699587568    0.06212064752903
H           2.81700406089295    0.93984689469843    0.24246211343144
H           2.27093801331019    2.31653386792629    0.66196361734155
O          -1.97662733699621    0.40918773729248    1.51933645662344
H          -1.22875894806494    0.97036843974753    1.25123829226877
H          -2.72126897190263    0.68880814596998    0.98234455440707
O          -1.44329824545007   -2.21650776521816    1.19874543188226
H          -0.76413587472618   -2.40866309761594    1.84784320807843
H          -1.71220999605508   -1.28644685576292    1.35828187722152
O          -0.51299239815021   -2.14668636911745   -1.26284934000127
H          -0.83783307047990   -0.75246992023762   -1.39915741704291
H           0.41616746242364   -2.00671884220021   -1.03076877523181
H          -0.96456903834990   -2.34158436319131   -0.39961030365984
