    19
        -40.92045258
S          -1.51584844520418    0.18034250990736   -0.47625005903849
O          -1.74317947185993    0.27157084394615    0.95354064805722
O          -0.55770973733882    1.18066022013865   -0.93921865190330
O          -1.13515414067164   -1.15320409853882   -0.91073911082549
O          -2.90401503903778    0.50941164975869   -1.16284310924033
H          -3.34595598389973    1.04760540443143   -0.51303119197983
O          -0.14109512342675   -1.66250116562229    1.57406952422981
H          -0.77890503887857   -0.90341630044562    1.56569007062797
H          -0.43416274180813   -2.19878540133716    0.82578366028120
O           1.94539143579686   -0.54790598353372    0.74312581904121
H           1.73498857946736    0.44331278536208    0.91612128571155
H           1.14052187743230   -1.07311417283398    1.18757374279147
O           1.13108605882501    1.84492205930598    0.89241889411982
H           0.38865824183989    1.68630227558666    0.24903001670913
H           1.63118745970027    2.59242228557641    0.55929166221414
O           1.28582780029749   -0.70655470606014   -1.68403643921388
H           0.36614542877574   -1.04395056559012   -1.52721831231051
H           1.13290648717082    0.20368643883467   -1.96452548585827
H           1.79931234276042   -0.67080409897472   -0.28878297343065
