    19
        -40.91893369
S          -1.47750923290342   -0.34229923102677    0.84613185611409
O          -2.48221865352382   -0.54694000466552   -0.16624471425318
O          -0.41553050321432   -1.35803381196596    0.78623566722669
O          -0.91735161065563    0.99394583067952    0.89670436988449
O          -2.19769024112578   -0.56501688075232    2.24344220675295
H          -2.86023211466185   -1.21873263889289    2.04130946482077
O           1.38616938265908   -0.51710443166363   -2.22978825809262
H           1.17122264533307   -1.35258670048284   -2.64919529496286
H           0.53395214160115   -0.00640857544937   -2.17874706286435
O           1.58729999778410    1.58558761362616    1.19086936711693
H           1.75501587439037    1.74056495583758    2.12223189263481
H           0.60471657964263    1.48399368198912    1.09766435709643
O          -0.90320862638525    0.71110588195705   -1.86651648820616
H          -1.58161150677038    0.17646905918561   -1.40623405803660
H          -0.79193537124519    1.48399019238131   -1.30469876657256
O           1.90214572007756   -0.74466419767509    0.23523054603239
H           1.94622067261856    0.20904520425169    0.60843850106731
H           0.92610631396399   -1.07413023324026    0.52666669334999
H           1.81443854253717   -0.65878573408546   -0.79350028886494
