    19
        -40.92079065
S           1.24860614052584   -0.73784659955153    0.32420389108593
O           0.94875871956381   -2.14207166748236    0.43512202529254
O           1.17746220417007   -0.25587769956158   -1.05672611795023
O           0.47235420633115    0.11164910949869    1.21666520739171
O           2.75283973437327   -0.54094112139254    0.77493317376374
H           3.22460018498822   -1.18364752851018    0.25442832388136
O           0.48976095500583    2.66935164132034    0.63648139209196
H          -0.03378224292684    3.13001987015797    1.29521211659540
H           0.63855272315193    1.75779506367581    0.98278975264796
O          -1.45541450248440   -2.29147139694872   -0.65199405010582
H          -0.53291020066133   -2.30994995993245   -0.31650007701326
H          -1.86589093008265   -3.10347553661957   -0.34869510623402
O          -0.55202928791869    1.48528148549517   -1.37943070349176
H           0.20764246442708    0.75477558527985   -1.39547366629769
H          -0.17896422327653    2.16056773216169   -0.71987104770713
O          -1.98014809182565    0.15653128022164    0.17201321651808
H          -1.24030639933195    0.11724058627605    0.81141639338168
H          -1.30894600890505    0.97526555351128   -0.82749786709350
H          -2.01218543711006   -0.75319641950034   -0.20707685647351
