    19
        -40.92045259
S          -0.46152468136737   -1.45855143298592   -0.46550220246857
O           0.40244528982300   -1.38629192784383    0.70978995103461
O          -1.77706457498879   -0.90618875763353   -0.20322114998879
O           0.18305525685339   -0.87253114241643   -1.62872183572743
O          -0.68612099192710   -2.99242274812296   -0.78717232111149
H          -1.50070155978561   -3.19186248702106   -0.33563184532843
O           0.50058109589779    2.06811155194292    0.33152590964949
H           0.18595742159266    1.60724459454854    1.19487838922444
H          -0.28811221695326    1.91096920655899   -0.35743722009058
O          -0.20819965855891    0.58419395712024    2.25684265890274
H           0.30534905537745    0.48354146175166    3.06062548913050
H          -0.08105184099666   -0.24934835629248    1.72837170410617
O          -1.29102514251365    1.39216513008378   -1.28677058729418
H          -0.80554874182341    0.98836058090420   -2.01800418101125
H          -1.68205931195165    0.60868986915468   -0.82179309891161
O           2.15068690495274    0.34993528744029   -0.49093262264173
H           2.24674234374349   -0.27643967355681    0.23631977103981
H           1.52650717666322   -0.11976750306728   -1.10236053802550
H           1.28008417594003    1.46019238943739   -0.02080627050755
