    19
        -40.92045300
S           0.25060932326377   -0.31257507256303   -1.54820549240559
O           0.47244867191142   -1.41074141995002   -0.61156188559586
O          -1.15256247507730    0.04432866298704   -1.64072696889419
O           1.10890062629010    0.81985352204213   -1.24285854707962
O           0.66541849995477   -0.83191714791993   -2.98521171892650
H          -0.16256452019902   -1.11872745829158   -3.35889559722198
O          -1.30460914555675   -1.48610406315056    1.25513631408857
H          -0.71789459485688   -1.53031514554235    0.45262160670244
H          -1.17109173445110   -2.30219048258837    1.74102158758647
O          -0.34879584189102    0.73984565729573    1.99163267651726
H          -0.68487469943759    1.38042000386377    1.21850977406840
H          -0.83745957526042   -0.14883894638821    1.82304192825235
O          -0.99069818949847    2.06728172595415   -0.03620398028333
H          -0.14483191211110    2.34696444692916   -0.40998759011273
H          -1.27759008269026    1.34614231209615   -0.65314657993405
O           1.93494794041290    0.14523210376437    1.10717696627443
H           1.80240204409166    0.51862205704522    0.19772935105863
H           0.65201494995942    0.53917743575798    1.74772682509340
H           1.90623071518019   -0.80645817139159    0.95220135079828
