    19
        -40.92246915
S          -0.50644698036584   -0.94090425193851    0.05380635955028
O          -0.36405200931077   -0.95683990406357    1.49106798576700
O           0.68682992346346   -1.23753102580395   -0.67955312617772
O          -1.61810103627475   -1.92834035324341   -0.36320952366493
O          -1.08066391803145    0.40736097937668   -0.37398439616411
H          -0.31451658688645    1.19346211496566   -0.42984137825080
O           1.94585988117359    0.51411201536118   -2.28458064430332
H           1.60237480750037   -0.24293584506045   -1.77306464451094
H           1.65130329970324    0.38824533206464   -3.18806147029984
O           1.87565596347701    0.54994974321004    1.43143601125860
H           2.50243007667733   -0.03537868215424    0.99892736684321
H           1.11581945403312   -0.00595291051863    1.67521433308338
O           0.76723337630687    2.03524392996563   -0.46093962190275
H           1.27670785012984    1.69637756738188   -1.23493571050314
H           1.26741189730004    1.71694116806582    0.32937454708955
O          -3.04910090843208   -0.78517912007666    1.48253290223294
H          -2.18501131947386   -0.78608121798743    1.92571107431094
H          -3.19599708030969    0.11293457546817    1.17271113939552
H          -2.37773671067855   -1.69548413501152    0.22738879624726
