    19
        -40.91892029
S           0.93163566276818   -0.03334576644040   -0.71503093225963
O          -0.15373739566726   -1.12348305743929   -0.79880535529944
O           0.36724884800830    1.20080493373925   -1.18886607513613
O           1.49902223493075   -0.01165402240873    0.59904846646603
O           2.00392655332268   -0.52270784520911   -1.71946101797332
H           1.56097782554019   -0.47271178199239   -2.60301109770574
O          -1.83225845141883    0.18500205253023    2.32530451855076
H          -2.06595931118805    0.39255102628937    3.23164664223002
H          -1.29644910395563    0.94232801914555    1.99532819342394
O          -0.12470225922677    2.03211107040087    1.40629124154923
H          -0.24701058272560    2.18621100456692    0.46122701462539
H           0.67303000480043    1.48669322074397    1.44796044309951
O           0.19698046644561   -0.10318668919305   -3.54695022838212
H          -0.49408091557674   -0.74955552798023   -3.37727545927348
H           0.01227293615359    0.65297986147395   -2.96741621411933
O          -0.31040392747001   -1.84981655055575    1.58781020722600
H           0.55303052232385   -1.46963488703743    1.79447293542707
H          -0.97912539654121   -1.19989349366183    1.92184876158563
H          -0.29439772042007   -1.54269158690935    0.14587796603161
