    19
        -40.92044437
S           0.65002206036194    0.07168019778838    1.45625742722417
O          -0.56718409923901    0.79282450377394    1.77309945266085
O           0.38404591587389   -1.34119378254510    1.19517799229556
O           1.41408778198885    0.67554721271061    0.37847242897834
O           1.57053357440865    0.14647807443841    2.74162104610445
H           0.96062819662385    0.02670063156913    3.46334675830330
O          -2.11666393357447   -0.69280359306154    0.33674492412143
H          -1.65839229632631   -1.49384467470864    0.62405756991556
H          -1.71506735301724    0.00766134766901    0.91327046467997
O          -1.04836447534306   -0.19181047065821   -1.87453733706365
H          -0.73083155427086    0.77609047583178   -1.74419405524230
H          -1.61970807534672   -0.40454181901584   -1.00933139483329
O          -0.04125222250294    2.05052570563153   -1.25778803776556
H           0.51483333114519    1.65955725807777   -0.53437352791372
H           0.55076402290474    2.55210995169308   -1.82152158716891
O           1.05089801741537   -1.45642837464524   -1.29308339723306
H          -0.18449226421452   -0.77811856090060   -1.75704375741702
H           1.75204334951385   -0.79570036251732   -1.25546136922304
H           0.83410002362067   -1.60473373114587   -0.33471361041781
