    19
        -40.91638451
S          -0.03769720025405   -1.40094344338389   -0.92665905129931
O           1.08920560438711   -2.28708822500851   -0.79397945770508
O          -0.84479854663454   -1.22880022050495    0.25637204496193
O           0.35724489216939   -0.09131951844292   -1.48828957549534
O          -0.99555371633763   -2.04953874899897   -2.01780531840046
H          -0.40139638892373   -2.46607313682788   -2.63537643684513
O           0.90226804952213    1.38978811177431    1.79779877856693
H           1.54317035935431    2.03591271080914    2.10107952130288
H           1.42426756095238    0.63267647290614    1.42643484409245
O           2.36882910071382   -0.35784729413507    0.47704290036628
H           2.58859352019055    0.10985858265673   -0.33366121583780
H           1.96344221426919   -1.19294097003518    0.16846273539557
O          -2.67315039829592    0.56479264892114    0.52482056902774
H          -2.12757819674276   -0.25492028760189    0.40051094912997
H          -2.85843474240720    0.61535696741480    1.46538416352777
O          -0.58768337192756    1.79756632792481   -0.22906930688193
H          -0.01061949395228    1.73462882689434    0.61550229060293
H          -0.18662330061700    1.00861964222137   -0.85519905695925
H          -1.51348595546182    1.44027154341640    0.04663064242805
