    19
        -40.91416422
S           1.65850791134654    0.25213820866614    0.29131064709118
O           0.94113120461182   -0.98518758884753    0.37090699545336
O           2.03186247844130    0.73816250097276   -0.99564482065073
O           0.91974663388385    1.33471542136247    1.06677594153968
O           2.98775174734891    0.05164948720394    1.12151349671658
H           3.62018015376952    0.69914602307705    0.81619224449873
O          -2.43194067202320    0.59569397828994    0.17576376073943
H          -1.78135316598558    0.64330333312823   -0.56579300858603
H          -2.88180639620217    1.44191441250679    0.18592084739189
O          -0.39684510305541   -2.04405025933584   -1.78313290096165
H          -1.17852975756322   -2.46177123367799   -1.41542730099316
H           0.18663739214938   -1.84149167737425   -1.03420726446017
O          -0.61427955777071    0.67012439754705   -1.76473182107849
H           0.31630243693624    0.90160079966999   -1.65278515510004
H          -0.61071454558962   -0.26392342749934   -2.04955651694475
O          -0.86150137548187    0.01629792877243    2.17675344406509
H           0.16326944201358    0.86769814125757    1.63879526715368
H          -1.58506692749690    0.21192387900820    1.51784994867395
H          -0.48335189933840   -0.82794432471656    1.89949619545335
