    19
        -40.91904999
S          -0.94429869713597    0.33724976605382    0.59731853915138
O          -0.65677241597241   -1.08805513486936    0.08750113766190
O           0.03794437051110    0.64260981377671    1.60710449016012
O          -1.03202162811145    1.24250437511719   -0.50115592455384
O          -2.33361434606556    0.20723058930549    1.26955273865354
H          -2.18561605748096   -0.39012895358872    2.04422064716194
O           2.08566521933233   -0.08850532562023   -2.08626549666583
H           2.05055944480436    0.63134227437112   -1.41676480396824
H           2.71712851027381   -0.73155270291749   -1.76070216624665
O           1.75118235732824    1.77693775133169   -0.18167388816801
H           1.31743001935894    1.39737379586990    0.59918104150999
H           1.09778272545020    2.36924856658149   -0.56435493045355
O          -1.15034988487488   -1.33577463379149    3.00342716567878
H          -0.88976081607749   -2.11983634622118    2.51229252616571
H          -0.44890409748266   -0.67929214364556    2.86551217189593
O          -0.46008053903477   -0.71595491672796   -2.36649596914308
H          -0.60535634197387   -1.06510769996581   -0.96108241827135
H          -0.86703799876594    0.15911857584898   -2.32752946036107
H           0.51612017590367   -0.54940766096558   -2.42008540022819
