    19
        -40.92079114
S           0.87735501091579   -0.01204297080116   -1.19947047727104
O          -0.21691557028405   -0.98383654214848   -1.24719515402970
O           0.52082864367120    1.13848486874031   -0.38096624403789
O           2.13813056679463   -0.61608709330424   -0.85367647704885
O           1.01692296247328    0.55712538885582   -2.66963258031564
H           1.36704373430700   -0.18066292026502   -3.15896574449596
O          -0.17724018840348    0.12071737496195    1.98218653936457
H           0.21278436361939    0.69759609635699    1.29452121232858
H           0.43106984209317   -0.65466168744813    2.01128446887325
O          -1.99062815854609    1.88317933212253   -0.51316429940462
H          -1.01845968637992    1.74774706272622   -0.61036559644362
H          -2.10465132972544    2.65253638497573    0.04845331167706
O           1.59384325246561   -1.76198904964817    1.46483895212949
H           2.42418413958691   -1.91543187307556    1.91968158178923
H           1.82919992487569   -1.43014772124100    0.57130832567482
O          -1.99989713143159   -0.50707925532458    0.40197419241193
H          -1.32292971823937   -0.83699381511327   -0.33580966709812
H          -1.33478499754812   -0.31562389313560    1.21307328292754
H          -2.24585566024585    0.41717030276387    0.06192436297081
