    19
        -40.90880571
S          -1.64576853345477   -0.77680206457015    1.06674473489820
O          -1.86560785317268   -1.94451766420430    0.27804697896562
O          -0.43239321913039   -0.96710800993184    1.96589294036859
O          -1.54747720177544    0.47734275476468    0.37654162740742
O          -2.84696131135523   -0.64885075187866    2.08394152098750
H          -3.12674024387545   -1.53140565636166    2.32025948184917
O           1.49435406130783    1.32560840353195   -2.67804049558997
H           0.85633373822419    0.61586249318521   -2.51757767658442
H           1.86483454356914    1.17373950510328   -3.54864309837919
O           2.21495582886217    0.36925704765657   -0.19182067587050
H           1.63278220072030   -0.33827465365053   -0.50736135408753
H           2.24637069428669    0.99292162305116   -0.93502717391690
O          -0.01942286092659   -0.75891355380657   -1.47209366337378
H          -0.60548923873033   -0.14801967617990   -0.99701279648171
H          -0.44051076990242   -1.61796346693769   -1.36888780602369
O           0.70786101200820    1.22120421630063    1.76534411448971
H           0.10840188640741   -0.04885975035142    2.00303033737072
H           1.41257012039148    0.97774903108371    1.09765226405445
H          -0.00809287346989    1.62703016321930    1.25901075994202
