    19
        -40.92453852
S           1.33304040333818   -0.23695319680778    0.69944064746921
O           1.56669317189749    0.75859242367813   -0.34024689497932
O           0.39474875484199    0.26610159298254    1.69683359411050
O           0.93454290214329   -1.51992255003169    0.15967139673992
O           2.70988622517680   -0.47042687632306    1.43758059820117
H           2.95232828851730    0.38400148735772    1.78277348585978
O          -1.57307112710605   -1.46309265776136    0.83319781635447
H          -0.64316733738822   -1.70203685555826    0.59733761585225
H          -1.47448925529685   -0.94675048779445    1.64198977752941
O          -1.90323066343151    0.20278892341117   -1.02941097391818
H          -1.91440750549911   -0.52857861035388   -0.28074693505056
H          -1.56708061456745    1.06534526448891   -0.54339004954028
O          -0.78182857749795    2.06326266550060    0.24653226658852
H          -0.01928417251429    2.32068220048686   -0.28490165779833
H          -0.39099786832420    1.48227088136030    0.94794554714719
O           0.22340058364504   -0.40640064239904   -2.23758492996129
H           0.42360171212870   -1.32131126313781   -2.00806232015809
H          -1.10771845174519   -0.06405251196935   -1.65560007432953
H           0.83703352170499    0.11648022288266   -1.66335893012393
