    19
        -40.92453833
S          -0.14216467953013    0.04524042709373   -1.51677332871859
O           0.35811562799298    1.34465774762936   -1.08167467448436
O           0.81741556218301   -1.00877827465993   -1.20841133216409
O          -1.46514908580340   -0.24023415387572   -1.00245122582255
O          -0.27696762038606    0.10432736292063   -3.08940271200666
H           0.60536860910289    0.27454399031577   -3.40593320710691
O           0.06621132558429   -0.08719288007889    2.17057533916864
H           0.96421774836536    0.18521843524541    1.70963093660825
H          -0.18904981271394   -0.99493858389071    1.71619952289880
O          -0.49220819665205   -2.09808322982751    0.75671134068066
H           0.08400363155759   -1.86274477768410   -0.01279755245945
H          -1.38559278999264   -1.96416265768681    0.41951867414852
O           2.03223359905411    0.52967516244973    0.72097925567185
H           1.50167910788350    0.99741944007528    0.02667601646871
H           2.30221732926337   -0.28806140990508    0.28671847261969
O          -1.49991969093405    1.46774632157789    0.95345690054145
H          -1.70286625622547    0.85059199435217    0.20802608858773
H          -0.63186036311702    0.60262871766969    1.80593838525901
H          -0.94568402564741    2.14214636836586    0.54301310004736
