    19
        -40.92246919
S           0.00721311765190    0.67574409500847   -0.83056853452665
O          -0.83396116981928   -0.22118241355670   -1.58844528714765
O          -0.61409625936405    0.89486808236271    0.54647984480944
O           1.37492600202394    0.27075768956590   -0.70936419280045
O          -0.05196731918974    2.08657531705045   -1.45560744173367
H          -1.02100938529054    2.26085954187233   -1.55900692418585
O          -2.63308127490412    1.77199590644439   -1.42696536784148
H          -2.87789501118768    1.75192779172778   -0.49753398535439
H          -2.36256790007828    0.86895156138679   -1.66030967810636
O           2.54985018509374   -0.40044838362636    1.61447386919863
H           3.00423523278853    0.36244640425346    1.97574373422225
H           2.29070856425964   -0.16309258683377    0.70389459612633
O           0.06043509423264   -2.40567525121129   -0.27812351765361
H          -0.37092069155402   -1.77216103458238   -0.87686951045285
H           0.97855105038049   -2.44844337680074   -0.55693506769904
O          -0.00308477827880   -1.01679811991538    1.97622028930232
H           0.96562634077070   -0.86489861027963    2.08551383926831
H          -0.39132511480898    0.07542924296835    1.24469626398197
H          -0.07163668274132   -1.72685587583479    1.29270707058435
