    19
        -40.92453688
S          -0.57658543345117   -0.62854716924066    1.26308598616562
O          -0.40913005760935    0.79482335501406    1.53196643361372
O          -1.53668913416205   -0.84243937536475    0.18536521383771
O           0.68407076795063   -1.29989051905240    1.02583763497476
O          -1.19290506873694   -1.28056081954795    2.56303506633832
H          -2.03574126793210   -0.85129348056096    2.67799017347257
O           0.93226090408690    0.81382730822337   -1.78681110056324
H           0.79993937192288   -0.22374284384156   -1.82454861040640
H          -0.02018177139047    1.18830963427721   -1.57280060901952
O           0.46090889320371   -1.64969917634992   -1.53750938789139
H          -0.49848149914437   -1.74503851912158   -1.56863696477299
H           0.66651903874900   -1.69923270281092   -0.57167322007883
O          -1.35254049104336    1.47678503170800   -0.95766690423875
H          -1.19796526779888    1.99989763099062   -0.16223066170971
H          -1.59461350052039    0.58311482308110   -0.60427130471075
O           1.96240792548348    1.06370006888190    0.50002341022075
H           2.31887085853148    0.20135034789682    0.74312410982249
H           1.47722238014144    0.98436708749924   -0.90928271316312
H           1.11263337173848    1.11426931832139    1.00500343812349
