    19
        -40.92453852
S          -0.65830252034315    0.89281931329943    1.04500335629685
O          -1.33067463026480   -0.40134783482936    1.08376983806329
O           0.74472744573619    0.75860988731750    1.41954033696047
O          -0.83202913264209    1.57093872364853   -0.22230731147113
O          -1.34598546249627    1.80311274062411    2.13737994979093
H          -1.21862973780166    1.33929376075713    2.95988655355990
O           0.74934807710598   -1.92418326619065    0.81566826516564
H          -0.12543725160512   -1.49555512812051    0.99815204566064
H           1.37637633956671   -1.37325689708602    1.29881130932553
O          -1.51763508129339   -0.47538411128325   -1.66751793041383
H          -1.38154177172158    0.41481322308353   -1.25961023312213
H          -1.96719744967591   -0.97410239644779   -0.97495892561090
O           0.90110097858875   -1.18049299007355   -1.58664186794331
H          -0.10823843423578   -0.96210702639341   -1.75662763522872
H           0.91364519608672   -1.62516015555639   -0.64052049731437
O           1.76479628674059    1.09950216814653   -0.94768166566525
H           1.12894686575280    1.74322515016297   -1.28110127047496
H           1.54952617561321    1.03906314894332    0.01659067928199
H           1.35720411691999   -0.24978830004231   -1.43783498686063
