    19
        -40.92246920
S          -0.56749978817952    0.06442753834904    0.90495362867738
O          -0.71118621485015    0.91767026378977   -0.35241008762713
O          -1.14261222394002   -1.23733468532026    0.65798498305167
O           0.79145562792383    0.05364762721595    1.35561570838377
O          -1.43688398484931    0.82444859889380    1.93023045216204
H          -2.35718333820050    0.73258230027009    1.57715356574089
O           2.84853878166195    1.06505537487466   -0.04849270920388
H           2.22080902281224    0.68494487625126    0.59518505460726
H           3.01870953266120    1.96466582797698    0.23577215442637
O           0.99561649456701   -2.07394274465046   -0.76214941145728
H           0.15694701250035   -1.98842831993313   -0.27708204397964
H           1.68513851426461   -2.09738863795614   -0.09392302845844
O          -3.44849873122926    0.13140127718232    0.43530827604686
H          -3.32538438894352    0.60506210947420   -0.39218539254096
H          -2.91456952504599   -0.67727597995632    0.37210318391589
O           1.10763770567286    0.31391984565523   -1.90033170559206
H           1.88842689069176    0.67415633655871   -1.41636088042959
H           1.12496384143260   -0.65757804982718   -1.72010521016309
H           0.06557476104466    0.69996645114992   -1.10126654755988
