    19
        -40.91638441
S           0.67310463806038   -1.51754007958701    0.24715733777817
O           0.80942371595369   -1.95114510140621    1.61322752827203
O          -0.67816331458535   -1.32678122067019   -0.22006593994414
O           1.50018447243554   -0.32492055780604   -0.03520509019666
O           1.28747546719274   -2.67273586718608   -0.65674533242744
H           2.01257308142422   -3.01588586960312   -0.14245787977103
O           0.27369219858897    0.52219869810437    2.36960810483643
H           0.32649375043557   -0.44517550289466    2.23450762006968
H           1.16706608393869    0.83287560595032    2.19758845129762
O          -1.20262035231790    1.99095333590982    0.75150929925903
H          -1.18774280614246    2.85712222620466    1.16354962898501
H          -0.78846749208087    1.36635920668521    1.40077460907625
O          -1.29328192054499   -0.19827789141674   -2.45170301285422
H          -2.22715599468575    0.01585149512548   -2.39199067513287
H          -1.10612366018493   -0.80669210829274   -1.69015617578297
O           0.25913103757748    1.41253281819761   -1.25439621134724
H          -0.34955334781697    0.85789662879721   -1.87279150195630
H          -0.34974537828273    1.73836185463097   -0.49727289904092
H           0.87370983108077    0.66500232927155   -0.76513785109681
