    19
        -40.91892663
S          -0.50424983684053   -1.07889030284400    0.80080617003095
O          -1.23533917058840    0.19990622852039    0.72496960589098
O          -1.05182807636399   -2.05282972604060   -0.11879461952147
O           0.91716856936468   -0.86849819777305    0.68044493000210
O          -0.76330469035427   -1.62422214849997    2.26239621763641
H          -1.63926802930548   -1.99704796328863    2.22550095012193
O          -0.47363850327499   -1.04521699430485   -2.44254454431984
H          -1.16561717020882   -1.30473455806009   -3.05476922626646
H          -0.64386766344035   -1.54270917718927   -1.60196198554606
O           0.93268742406827    1.48957953470675    1.99662509289120
H          -0.01513380625885    1.65174116078214    1.98827947755888
H           1.02172305941765    0.53797103249795    1.81992134698336
O           1.92051200216059    1.41170238602223   -0.48474648528739
H           1.74708040350954    1.76012888735603    0.41899716349053
H           2.03954837769908    0.46023201896563   -0.33561502910159
O          -0.41535977667595    1.25522669715834   -1.36480347007262
H          -0.85171596905340    0.90998112425430   -0.47200617007537
H           0.60162003079815    1.42064969854704   -1.09045749259327
H          -0.42101715466196    0.41703029919057   -1.95224193182319
