    19
        -40.91641699
S          -0.63698418393028   -0.05860060322435   -0.97142463528812
O           0.18845812732055   -0.91708169603524   -1.76503333412649
O          -1.40451687554979   -0.85446126738022    0.06630134999282
O           0.07623625251471    1.02537372519877   -0.32952694367195
O          -1.77430056622077    0.54874849104041   -1.85032552645550
H          -1.31745650599545    1.05279837247458   -2.55595516356259
O           1.84361101060592   -0.87351925815395    0.52076973679552
H           1.60513786934948   -1.41493496394789   -0.23919298912803
H           1.50438673882257    0.00750436626686    0.30881629208137
O           0.65787393531988   -1.06658268616865    2.94954384811416
H           0.37966171437556   -1.97528780763578    3.07649016864919
H           1.21914215357356   -1.05603064435515    2.14684949759441
O           0.30666160352341    1.51071209378577   -3.14307067250047
H           0.67082716736499    0.61804047283002   -3.17622033948968
H           0.67410325591776    1.92308238953456   -2.35443755763457
O          -1.23085029099737    0.55899773549641    2.10428325464566
H          -1.46966521597601   -0.29260875160377    0.96070550849766
H          -0.56134452085300    0.00926193409432    2.59293906551790
H          -0.73098164915047    1.25458809777432    1.65848842999668
