    19
        -40.92079123
S           0.37159844606276    0.82012822377156    1.18160388875885
O          -0.63712002192393    1.43538725492745    0.31677072091588
O           0.31487073803700   -0.63287581475815    1.10122166960868
O           1.68566763977960    1.37308402849485    0.97761288844841
O          -0.05824826188230    1.16653154898171    2.66486576139903
H           0.10883241276002    2.10162515929985    2.73013894543615
O          -2.08618073075002   -1.65299103191087    0.82838100924768
H          -2.00560231904890   -2.60867718397673    0.80682495549277
H          -1.21536701338251   -1.30419386679229    1.13315679452243
O           2.06494826942208    0.96956070498513   -1.60656942997007
H           1.94513145634876    1.22031204542442   -0.66495074019030
H           3.00802853903213    1.01119388623158   -1.77598082215179
O           0.56606125091691   -1.19555313390026   -1.49234502039146
H           1.16071145665898   -0.45645265119634   -1.76146477978428
H           0.65919696619014   -1.22712357989052   -0.51860853821488
O          -1.69557851530896   -0.18169732932583   -1.22951553148368
H          -0.78219472523676   -0.64682987368603   -1.52453614534208
H          -2.07330894101479   -0.80600133546876   -0.52414853918305
H          -1.33144664667969    0.61457295880462   -0.64245708725133
