    19
        -40.91965227
S           0.76182208355742   -0.03521139268361    1.33620995991118
O           0.54626989727425    1.23400572916532    0.62353085461774
O          -0.21099316251758   -1.02851744474380    0.87272737613218
O           2.11393280634761   -0.49690537763653    1.30524233773410
O           0.39002322591009    0.28531287278527    2.83982454566131
H          -0.28353532776548    0.95824284520570    2.79193446255083
O           2.40801967096032   -0.02511315518092   -1.28888287534371
H           2.48183369920233   -0.27845852307077   -0.34708406270005
H           2.44659970392565    0.93376770409449   -1.30051880436787
O           0.04448722813407   -1.07673155418806   -1.76650970482964
H           0.98855993776437   -0.79146591044097   -1.83349951860860
H          -0.04052857770971   -1.38364690629401   -0.83899339257898
O          -2.60906288348852   -0.10915364426160    0.51132832234904
H          -1.76095841657111   -0.54296513155784    0.78507434121425
H          -3.22299571461327   -0.81626502505810    0.30435957777851
O          -1.10597198646956    1.04567871932294   -1.21822060848271
H          -0.39736397136266    1.27053248052903   -0.47688033450493
H          -0.66230322331641    0.14123737318728   -1.63164013557491
H          -1.88783498926795    0.71565632082387   -0.66800236095640
