    19
        -40.91416455
S           0.69473227693316   -1.52710886992768    0.29677751321481
O           1.04050272518699   -1.87014983215398   -1.04290256925389
O           1.67608968094094   -0.49911986289231    0.84452481176285
O          -0.64996531323793   -1.11628640703491    0.57013192694636
O           0.96307786282446   -2.80065794525534    1.19218596314910
H           1.69006267969589   -3.28154885780737    0.80139031514211
O           0.00074115692660    2.50477100644630   -0.01577920049758
H           0.69994856873305    3.14180074670147   -0.17016486270255
H           0.08539703318782    1.83022197557957   -0.73240059477857
O          -2.34517867262338   -0.22091754013956   -1.40032035071983
H          -2.86158217980904    0.47571331493796   -0.98962290171763
H          -1.88707810979415   -0.68580594807145   -0.68181577956471
O           0.20029535955558    0.61776053670055   -1.87908962081597
H          -0.73864959214155    0.37389243092550   -1.99169254036751
H           0.66699100700591   -0.22132722227334   -1.77750260105720
O           0.16136617290297    1.00078539604508    2.10992445289253
H           0.06245688859554    1.69686990122571    1.40164871781856
H          -0.59787971032378    0.41412845047050    2.00038475125408
H           1.13867216553195    0.16697870657739    1.46432258921361
