    19
        -40.91451142
S           1.20774758030237    0.61971082975264    0.73828685799207
O           0.92350754074384    1.39084656135930   -0.53770938630186
O           0.40931800084076    1.12435526188467    1.81058239704426
O           1.17763420915427   -0.79002316046040    0.49388516051990
O           2.71080379931373    0.98470845107685    1.06325913860423
H           2.72803574351471    1.84964785379689    1.46874409729537
O          -1.66241242377257   -0.43267645830127   -2.19830961785025
H          -2.12424098229889    0.24041328842789   -2.70091853079341
H          -1.79087515596115   -0.20256316082362   -1.24982096058825
O          -1.83069676011138    0.28152163439568    0.37230728839917
H          -1.23530136562311    0.90671650264685    0.79892569530740
H          -1.78984481115746   -0.51852207777336    0.93234888152356
O          -0.90096931408320   -1.58725053140446    2.10203531774291
H          -0.09951831394545   -1.55990117409758    1.55782448558412
H          -0.73959459537183   -0.98810104246826    2.83501256505677
O           0.93572231978821   -0.41467418630522   -2.21202994110780
H           1.16381709745556   -1.09720923696064   -1.56606679947911
H          -0.05217986637352   -0.49656001872551   -2.35369113609166
H           0.96904728747749    0.68956068420161   -1.35466551280177
