    19
        -40.90880546
S          -0.77732757132683    1.96021562842884   -0.07423455004085
O          -1.91371436058122    1.08556418706598    0.43608751724213
O          -0.04052891450052    2.50371063858671    1.01934432671003
O          -0.03803362409122    1.25744582531520   -1.08335855747993
O          -1.52012999622778    3.15305318469080   -0.79476895611711
H          -1.75566539168622    3.79655430396769   -0.12893192508402
O           1.40213419382749    0.10163281453630    0.88381131317818
H           1.32329524528677    0.84336299508991    1.49178249355388
H           1.08812205856296    0.45516547677627    0.03593356793676
O          -0.21835708508525   -2.16991454418730    0.55238732336589
H           0.54019550864723   -2.56882122873674    0.09661585528643
H           0.16264143008517   -1.40551266920732    1.01035596227873
O           2.41368025486423   -2.29673551229601   -0.26608488646894
H           2.33900368306683   -1.40815531534493    0.10991168748945
H           3.18165579087699   -2.70447339377020    0.13659358340742
O          -1.78637533807313   -0.86641728490350   -1.08125399716592
H          -1.28545158374899   -1.50105917569886   -0.49113834249656
H          -1.99047248151858    0.22867889133867   -0.19382686819629
H          -1.12467182837616   -0.46429480166809   -1.65922554740016
