    19
        -40.92044715
S           1.11332292841731    1.10190627133280    0.30990374917920
O           1.69846040564945    0.60507231885575   -0.92011425749244
O          -0.12680768538029    1.83226714733258    0.05880610548362
O           0.92542710765741    0.07126493086362    1.31664722235943
O           2.15078051596322    2.12984638378690    0.92018429395348
H           2.50619603689941    2.56991888197251    0.15384550368105
O          -0.54967214462257    0.31628290384683   -2.16144172221457
H           0.39979608764940    0.31876668647595   -1.87494302691221
H          -0.88085217388351    1.15295217653269   -1.80857124475552
O           0.64041525951076   -2.29450752511101    0.31477817980429
H           0.70305178437517   -2.92448332648342    1.03524179019920
H           0.91247161292753   -1.41264086564573    0.68087757947832
O          -1.79950154557117    0.28229552366872    1.26213355690058
H          -1.20221144898785   -0.01188302083040    1.95954297292147
H          -1.29095289759992    1.01924337847337    0.83095644272020
O          -1.53753611860917   -1.38481282436546   -0.60733110850574
H          -0.70384999516584   -1.89556185138204   -0.29263744805273
H          -1.77518819774660   -0.73904095661955    0.18696194206746
H          -1.18334953139452   -0.73688623267897   -1.36484054077726
