    19
        -40.92315270
S          -1.42082879710363   -0.92412372589020   -0.09606087538025
O          -1.34290069814350    0.38862244791805    0.54802048513909
O          -1.20103396117828   -0.78987949936076   -1.53844784576093
O          -0.55890707440798   -1.88711162914602    0.53442679159519
O          -2.90531306314347   -1.42610424256428    0.05784784286895
H          -3.36403751939525   -0.92871502541259   -0.61205033565433
O           0.27747673899246    2.22346213225743   -0.47872950596588
H          -0.49187572400371    1.71260084196485   -0.14348586282167
H           0.84014207268706    2.36022451723064    0.29085724059503
O           0.90337549566366    0.67478858207631    1.93784568941247
H           0.85401989628779    0.34304405417942    2.83547219028030
H           0.01227462132685    0.53477864232640    1.54714154672470
O           1.89764600877237   -1.05038020621551    0.14478267379732
H           1.10097778294211   -1.61218096651926    0.27990640997186
H           1.82918506759107   -0.38780559333851    0.86544736446647
O           1.05382618008194    0.21511504039372   -1.83014677560189
H           1.55301103073626   -0.34015684239798   -1.06523468713826
H           0.11323737366378   -0.23888477764122   -1.86495573255700
H           0.84972454861959    1.13270626011096   -1.41263661397412
