    19
        -40.91940436
S           0.56975866259417    0.69185343846626    0.58117015466296
O          -0.50761437882895    1.17337936853642   -0.29098593904952
O           0.08881839351418   -0.28698807473450    1.53358800006006
O           1.68256672301465    0.16384862684912   -0.21488913485616
O           1.13790378812328    1.91995924500973    1.34811665806774
H           0.33575501379618    2.37538413028200    1.68019170717254
O          -0.95600996259203   -0.47433083490927   -2.25714048771164
H          -0.80714601080405    0.03051821792249   -3.05941061969115
H          -0.89584024510312    0.17417797232703   -1.50781732558248
O          -1.31300869447808    2.85553291520593    1.57242404554487
H          -1.32793465359269    2.22184717647790    0.82903192280818
H          -1.49872634694017    3.72129682055909    1.20119998083861
O          -0.02682929517280   -2.74804074057930    0.77393680986310
H           0.54005738414317   -3.23565348733811    1.37536032137222
H          -0.09431700417334   -1.82634228960223    1.14837537689564
O           0.95782512380274   -1.88336659324551   -1.37699799934636
H           0.15591985095344   -1.45597167183937   -1.85836862971121
H           1.40124921773914   -1.02616792814335   -0.91408273709928
H           0.55757243422237   -2.39093628107152   -0.56370210440636
