    19
        -40.91865339
S           0.25620226741930   -0.19364139800299   -0.94850509767258
O           0.31819944203318    1.24920356223852   -0.96635745525398
O           1.08537800665476   -0.69371145842905    0.23614538437783
O          -1.05132462851626   -0.76747024284421   -0.90828999500879
O           0.99868578935435   -0.72475071191046   -2.20056736171160
H           1.76756022136748   -0.11862923642437   -2.35932104697863
O           2.61488889411430    1.31186564192133   -2.30482589053891
H           1.92189464247672    1.63162860480738   -1.69919996850024
H           2.56909860525624    1.85727458114671   -3.09430123775691
O          -1.79369859833893    1.37987668582199    0.76118278884553
H          -1.01053694045907    1.57348233460959    0.22382340264898
H          -2.34101156534130    0.81901609707757    0.20351390827808
O          -1.28383045202140   -0.26254518944381    2.83951145306641
H          -0.60029523352991    0.14424770827790    3.37438586737126
H          -1.53023982263473    0.39787478903430    2.15556874541024
O          -0.49613418355559   -2.27998568188390    1.33078757130992
H          -1.12262098278878   -2.23317882770516    0.59687917185033
H           0.54165854716481   -1.43292160023059    0.73936728334850
H          -0.84387400865482   -1.65763567807225    2.02020246690798
