    19
        -40.91907723
S          -0.50391519706470    1.30351855365180    0.90865580313057
O          -1.50278450239532    0.44202004927011    0.31920496229820
O           0.76658391628203    0.57409147650490    1.10813523506814
O          -0.29841685788189    2.54709081566594    0.20367089675147
O          -1.00604511191786    1.66892407468015    2.36481021720489
H          -0.55950671171596    2.48184891573361    2.58665759472264
O          -0.53965412956317   -1.82204410048950    1.27574562167867
H          -1.17659865349725   -1.15484211251990    0.95271321228100
H           0.15434521296781   -1.27898795206964    1.67214909480191
O           0.58999254369004   -2.49609005852613   -0.97456211817648
H           1.21084298740505   -3.20894603537797   -0.81362610630557
H           0.07659012831365   -2.36197548142890   -0.12521019782073
O           1.48347778769618   -0.13953641793394   -1.15767568077998
H           1.17162955335581   -1.13170217878924   -1.17614955856749
H           1.30608646371607    0.17871375296226   -0.16731028697813
O          -0.41225703021079    1.25426279280412   -2.07545416666445
H           0.78202763645609    0.40967025109233   -1.69513679160253
H          -1.19249069731331    0.75778540432332   -1.79583695077441
H          -0.34990732831823    1.97619826066834   -1.41078078031412
