    19
        -40.91739553
S           0.47868571131443    0.50211044980325    1.07088417024565
O          -0.93428580922869    0.23102195413635    1.09010611709717
O           1.24164366523540   -0.50385484476734    0.37604446198392
O           0.77203434969052    1.88684766553343    0.51655037275919
O           1.00407323566407    0.65390025698811    2.52217524714645
H           0.85804102881635   -0.23414653979805    2.91417785042462
O           0.27672675701400   -1.86279573105302    2.57989603002865
H          -0.64306656100440   -1.73434286241810    2.32673649669725
H           0.76683217767408   -1.99082012061888    1.75819606410454
O           0.35413311109413   -0.59903742884017   -2.19280541819478
H           0.85691575834436   -0.76086076936851   -1.37719718752414
H          -0.55666573128030   -0.88938334498305   -1.98194695422501
O          -2.06264143348488   -0.96356067283122   -1.04715058767582
H          -2.79596979014504   -0.41794263150086   -1.33752870787695
H          -1.73501262980470   -0.56092780306361   -0.22128531227332
O           0.27678736009535    1.95795899006389   -1.93810361303170
H           0.53704827453574    1.97333439236437   -0.49988446920214
H           1.02612480202863    2.34235276382385   -2.39956743455887
H           0.27859571351874    0.97014627657793   -2.15929713597808
