    19
        -40.91892673
S           0.27641385155819   -1.33261268419886   -0.45334806517524
O           0.71353169847101   -0.90423135334349    0.85219996146410
O          -0.98863956581455   -2.03495803115994   -0.46743395052520
O           0.27458496184191   -0.20595951699737   -1.40551432634546
O           1.37110128956016   -2.33727473483701   -0.99470944460405
H           0.94155594434914   -2.79464552337688   -1.71166573170202
O           0.58589262039894    1.74225529520248    1.59263685491078
H           0.52156171876113    0.81872743364808    1.88337688514168
H           1.42882734464345    1.75927197903950    1.08499192616249
O          -2.63033938632018   -0.28245759587733    0.52416842083829
H          -2.05612187588702   -1.03616152742520    0.23227466452626
H          -3.49169972282985   -0.42959057742462    0.12732625534417
O           2.50165399726229    0.89808830705647   -0.06684452860660
H           2.13611722211999    0.07158929762309    0.29073969388975
H           2.20038613926254    0.92285342759817   -0.97977513714864
O          -1.06405748409863    1.55117311198803   -0.27712910610892
H          -0.49613963980563    0.88769279700856   -0.86379803969803
H          -1.80521730730447    0.94606225086427    0.08634232966895
H          -0.41941180326301    1.76017764420315    0.54616134710813
