    19
        -40.92174072
S           0.22325241665878    0.35640522988398   -0.79061615105651
O          -0.60468218713879    1.47192541886604   -0.38333563967680
O           1.31542718293632    0.11394545646255    0.23480894775084
O          -0.49655780866365   -0.85428505698578   -1.05691368435646
O           1.00568028352674    0.76084652671086   -2.05897530009955
H           1.25601230011206    1.71219127914525   -1.92990860917080
O          -0.11362472382541   -3.10779164953794    0.36392640133120
H           0.57582744736322   -3.62840165628578   -0.05139229868893
H          -0.33734685151094   -2.39416797150713   -0.26318266929454
O           1.09741784650961    3.25579120691921   -1.34751787746630
H           0.68597306466433    3.89547614645222   -1.93421571843428
H           0.39280595773541    2.90383818959971   -0.77260719297271
O          -1.96928409740999   -0.06462409691463    1.37830955556096
H          -2.35752134256223   -0.70701313506500    0.77846476772483
H          -1.63009429982298    0.65147855313058    0.81630092436999
O           0.33717007045271   -1.15701959859475    2.11423296814494
H           0.22265008199024   -2.03358016590523    1.67952171098572
H           0.95938413970271   -0.42209893363792    1.11140780841235
H          -0.56248946071903   -0.75291576273752    2.11169204694145
