    19
        -40.91966066
S           0.03732310279572    1.03686364210484   -1.36228523239677
O           0.78468676975420   -0.10379025320268   -1.91431637231404
O          -1.38485926390639    0.73804088166308   -1.29737615074919
O           0.58528751933828    1.47443375913324   -0.10239849536485
O           0.21728921237837    2.21190449212192   -2.39416591316490
H          -0.17179773622441    1.86019727091892   -3.18902087211572
O          -0.60966913655124    0.59059158387819    2.21962472934645
H          -1.23758622740292   -0.05272544093626    1.87131832864455
H          -0.40128328324378    1.18213393837318    1.47785704551633
O          -1.64015263096589   -1.24612330687236    0.30177333602660
H          -1.63277004130532   -0.45760836636973   -0.31522498474476
H          -2.34380699894438   -1.82131752135363   -0.00436969670142
O           1.83826870517844   -0.20688679034187    1.63367810199750
H           1.90501928389295    0.56957837568994    1.05406866690985
H           1.02986705497183   -0.01020236191534    2.16729219187760
O           0.86356814844429   -1.74399648316493   -0.07299868668479
H           0.91875820394689   -1.11442442803109   -0.92900072542404
H           1.36151876196350   -1.18364354978582    0.69740196778490
H          -0.11966144411651   -1.72302542189230    0.15814278164317
