    19
        -40.91641683
S           0.30889050333941    0.01855099173521    1.11931305102563
O           1.22438138463417   -0.99389362817919    0.45844647131685
O           0.93652031754624    1.30264447506291    1.19189861692431
O          -0.97830495710833    0.02208379774527    0.45704874932242
O           0.12631219267934   -0.56742730156813    2.55399164877202
H          -0.44243130675309    0.07531657797984    3.02735937855551
O           0.25519056561167    1.40907261750570   -1.54529181666185
H           0.89170858245977    1.73978576832149   -0.90262087487198
H          -0.47215798343722    1.06016004706029   -1.01108494434087
O          -1.31811479058976    1.61769382049297    2.81201498681951
H          -1.87497181546081    1.40678766416114    2.05553364781881
H          -0.57252799586003    2.12310169816387    2.46653855124483
O           0.62576346545314   -0.82633571366059   -3.03208999209400
H           1.56586346307577   -0.92830030864004   -3.19033312560279
H           0.50422618342829    0.06155315660019   -2.63687280434576
O          -0.31391195810165   -2.25620072413173   -1.03255124120319
H          -1.09365125354944   -1.75645613852514   -0.75927077304920
H          -0.01995455264034   -1.85745616315660   -1.89491274633132
H           0.64716995532172   -1.65068063705748   -0.13711678334644
