    19
        -40.91907735
S           1.52512578272982   -0.58524467331416    0.33749326998402
O           1.24210393415945    0.80575523751875    0.60701672501112
O           1.51502463914007   -1.43272940700331    1.50689436093131
O           0.63415147629486   -1.10644284018424   -0.72085772061145
O           2.98279710949028   -0.65252013529519   -0.27609970033240
H           3.28232862490800   -1.54250623862278   -0.10962786081419
O          -1.66881165463615   -0.86449346830890    0.17070889277294
H          -1.98728540482333    0.00795891592016   -0.29743375197904
H          -0.73223842492709   -1.07686603595855   -0.26647257390617
O          -2.18505244423210    1.29135982931458   -1.04223488647561
H          -1.25405939898963    1.47172260602329   -1.36405802015214
H          -2.74544162255605    1.25661109882166   -1.81957840565107
O           0.30961181568122    1.39135161783978   -1.79115671166566
H           0.74466004492461    1.48570135953464   -0.92080094487721
H           0.47255908847008    0.46499076822234   -2.01180417624545
O          -0.62669740666196   -0.19029372670133    2.37016037400570
H           0.14780081063826   -0.79374375381403    2.31394201758492
H          -0.25173962564553    0.67724630112461    2.17000152727840
H          -1.40483734396335   -0.60785744511193    1.14390761516743
