    19
        -40.91912343
S           0.90839959371775   -0.91904991413468   -0.33834686170460
O           2.16996298767859   -1.51701971592303   -0.63854291121625
O          -0.18761434833867   -1.20314779824755   -1.21452895618073
O           0.53861790620626   -1.23732886953783    1.10536108311213
O           1.08260243656250    0.64547564853627   -0.34832080266636
H           1.98866111853322    0.79865344873282    0.03016581399408
O           3.52371396845719    0.45007822303570    0.46382835894739
H           3.34188020506081   -0.46693020275153    0.18103170257077
H           4.23130295378873    0.77955286712650   -0.09599726231419
O          -1.39088578122294    1.95519191117296    0.16762101891077
H          -1.98834172782527    1.52873359688867   -0.46293246363285
H          -0.49522097325988    1.76922961327910   -0.13938186664280
O          -2.66288727449079   -0.27341124448612   -1.02234161933619
H          -1.76954062117848   -0.63885210523676   -1.18873464019246
H          -3.23359094518912   -0.63981850745489   -1.69912121022347
O          -1.72271134421919   -0.25799015662102    1.59030686842351
H          -0.40329454663773   -0.86727522234501    1.35733774752167
H          -1.60710220930222    0.69075409805243    1.34296239633320
H          -2.32395139832013   -0.59684569007324    0.90963360429358
