    19
        -40.91628479
S          -0.73575314369706   -0.14132014286545    1.04940631078196
O           0.00366147613192    1.09650409673030    0.93034327539992
O          -1.34344220390670   -0.48071688165324   -0.31525276062291
O          -0.00207931414306   -1.25364977866929    1.55910743862243
O          -1.96372032978009    0.08934620726185    1.96091801171812
H          -2.27215999050389    1.01577369721779    1.79395791012670
O           1.96100410552046   -0.94856684068773   -2.23929773184271
H           1.75952895512513   -1.53159263683325   -2.97352078032726
H           1.93295084509661   -1.51054647343212   -1.43235773324510
O          -2.10111373958625    2.62388207611281    1.38942372676493
H          -2.01191368302708    3.23573956712207    2.12402777178654
H          -1.19864744348132    2.37878308479957    1.10994746729617
O           1.76726669826234   -2.46885087143175   -0.04529888810787
H           1.06966036120297   -2.11247731674655    0.53788654656576
H           2.53840055804017   -2.58870084198572    0.51251842468593
O           0.12234068402926    0.88696549793747   -1.80645314462556
H           0.45866854323489    1.39173444335929   -1.05511835972475
H           0.84671596005086    0.25582224018725   -2.05952438964111
H          -0.83136833865125    0.06187088360934   -1.04071308559350
