    19
        -40.92136400
S          -1.07672239049058    0.44984987785350    0.74870884334549
O           0.29783150511680    0.39233899267846    1.19244987568569
O          -1.59686329050132    1.78630739370647    0.59928760887136
O          -1.27055978857611   -0.36470017266202   -0.46401703221398
O          -1.94592339214563   -0.26659707837472    1.86795849677048
H          -2.79665115907283    0.15912535232083    1.81025698810553
O           0.56370770260597    2.48293201955922   -0.73965609329642
H          -0.31002526411947    2.39293819290534   -0.29585465235022
H           1.20643553429855    2.52190014127059   -0.02592854400120
O           2.02154607267608   -0.99225044668388   -0.21296347212221
H           1.53035929473808   -1.84015371035132   -0.13846421054468
H           1.61161712799749   -0.44586524041752    0.49619235717819
O          -0.02661090523997   -2.62195907676948    0.28687564602321
H          -0.22678339682893   -2.74839799345786    1.21588567122163
H          -0.61666695858754   -1.90863501412531   -0.02165926125439
O           0.69072407292763    0.22088664772590   -1.91453043292728
H           1.40016011406684   -0.33513905729869   -1.29291828702539
H          -0.20283731220000   -0.07791734265887   -1.50576263926037
H           0.74726242332632    1.19533653478245   -1.60586084220647
