    19
        -40.90692920
S           1.29375480513615    1.56250537172320    0.54559377143772
O           0.41237592965841    1.34723960135443   -0.61228828270837
O           0.59940031098766    2.00312205964975    1.71846750275454
O           2.13887004137025    0.38059149982142    0.73784467408577
O           2.28384308844578    2.73385585459354    0.12818294208801
H           2.03893527850244    3.48721996765293    0.65922410321126
O          -0.29987790611493   -2.25121302271878   -0.12441742329671
H          -0.52561474618224   -1.60312604357665    0.57114495541614
H          -1.10149545325757   -2.27554207086083   -0.67739008087673
O          -1.24813534379830    0.04639963646405    0.98852483295072
H          -0.78985823836542    0.60163661345912    0.32736982799084
H          -1.06090325480041    0.49369186606603    1.81977125443906
O          -2.70528437602694   -1.37651696346980   -0.98761404805662
H          -2.49052393339851   -0.71315705362604   -0.31583941555974
H          -3.64139785178043   -1.56363923914547   -0.90787761337979
O           1.45439190970988   -0.84975440215796   -1.24630184543825
H           0.76161034039272   -1.54695563925059   -0.84893789257433
H           0.92281185848202   -0.01001485013905   -1.40022850961416
H           1.95709753067183   -0.46634317631132   -0.37522876316272
