    19
        -40.91865325
S           0.23755922797376   -0.86921157016867    0.44048677162753
O           0.86281055345795   -1.05502885931206   -0.84814893231529
O           0.70182333412936    0.47322294162766    1.00939153165774
O          -1.18874696486156   -0.94423652653166    0.46454888131876
O           0.81272145063255   -1.92861737873403    1.41394639365343
H           1.76904846689618   -2.04691919714651    1.17861936799467
O          -1.17298980362724    0.30319382515087   -2.06130053535697
H          -1.84248339348358   -0.24959574444556   -1.64731777509545
H          -0.33171621201309   -0.13087558307658   -1.85301573979707
O          -1.51027427729022    2.63054404570554   -0.74147178109403
H          -0.76676037402545    3.19750898342772   -0.95244806931674
H          -1.42593505483809    1.83771409103994   -1.31521695498859
O           3.10394424365132   -2.04315613388678    0.18659607244514
H           2.54422099139324   -1.58717230145431   -0.46770039269881
H           3.34610275666280   -2.89065606737161   -0.19528601211001
O          -1.46188554680059    1.52947322469190    1.65684833700025
H          -1.58943251151198    2.07381232981045    0.83766183139227
H          -1.95850865006710    0.71428481222310    1.50859337930141
H          -0.12949822624165    0.98571509844904    1.38521360641472
