    19
        -40.92218952
S          -0.86946836374034    0.74157751386016   -0.18280777812962
O          -0.21352576013218    0.33909827561742   -1.42264174035004
O          -1.28427505159380   -0.42345489369612    0.59199190903617
O          -0.01765124732182    1.63119499829210    0.60667924966064
O          -2.14094180322816    1.56186428084004   -0.54823066656616
H          -2.66198737510527    0.91623248080612   -1.06949081043166
O           0.57716348936632   -1.40259839761126    2.10888436942014
H          -0.18168573084713   -1.13355893623210    1.52433296408730
H           0.25009674861887   -1.35005624305864    3.00953802567927
O          -2.71694966680580   -0.72368331450390   -1.71841827708479
H          -1.85172126679422   -0.63297693535791   -2.13913979706655
H          -2.53145369073723   -1.11683455938619   -0.85527775416364
O           2.31654227886094   -0.16504914725336   -1.16149682945342
H           1.34692169895306   -0.04543042181262   -1.35035308730635
H           2.77698586607374    0.44730143917174   -1.73935701621100
O           2.05424212410558    0.46444743116927    1.26893529036893
H           1.59790165130298   -0.35777400103038    1.70092635769545
H           2.33311853750069    0.16508771949957    0.31821206848733
H           1.21668756153813    1.08461271067869    1.05771351232608
