    19
        -40.92246916
S          -0.47941636106376   -0.94873481613115    0.12350625663269
O           0.45101226327490   -1.29851309984587    1.17147059710327
O          -1.05657533235435    0.43450318489910    0.41263844583580
O           0.05038019117013   -1.00755477797264   -1.20512413866723
O          -1.72320706254956   -1.85916577247252    0.21600625335443
H          -1.98570039089166   -1.80917590168651    1.16918256441972
O           2.40210559699510    0.27565807834778    0.16977119761543
H           2.60629507553387   -0.15872065478662   -0.66217419730591
H           1.86247389062007   -0.35610665498243    0.67529847283579
O          -1.73049436829958   -1.25610659562564    2.74545302854247
H          -1.93766098745173   -0.31820348635966    2.78681379689336
H          -0.77299387642514   -1.32100575061193    2.59708186004047
O           0.34682325797787    1.13594531841494   -2.80082947366847
H          -0.41685742197515    1.21605895521668   -3.37471162989087
H           0.27876385629774    0.26323513825758   -2.36891835873120
O           0.57275263380110    2.11876439893747   -0.34928672658349
H           0.51524996100491    2.00092954667664   -1.32713002380505
H          -0.38039874960719    1.24554320080341    0.10662664432190
H           1.39744782401073    1.64264968889447   -0.08567454895682
