    19
        -40.91285612
S          -1.09450214793676    0.28041275790314   -1.28600362520205
O          -0.74813860930573   -1.03590985438760   -0.76060090373482
O          -1.44413865314586    1.19481191545782   -0.19172387914979
O          -0.14135925012545    0.83515982677913   -2.20573556621427
O          -2.43710151636166    0.04579998233151   -2.09985307790247
H          -2.54231824258489    0.82056148922977   -2.64492215472538
O           2.21292154136320    1.28832870412761   -1.02277966458358
H           1.34683289629205    1.23500574927013   -1.47449340291606
H           2.87418388376770    1.30742282276120   -1.71723692920704
O           1.71693118730129   -0.92383478302983    0.40668706523549
H           0.93390360339712   -1.14499408520136   -0.12543653143937
H           2.07318313926624   -0.10893383955226   -0.00640865428958
O           0.61298425922852   -0.42748939085705    2.67998508635235
H           1.15854876645236   -0.57163804668326    1.84258560730687
H           0.82238291673916   -1.15301845275209    3.27141124501981
O          -1.61136442233692   -0.51014364974668    1.52926220382113
H          -1.64501825288879    0.39457809707702    0.95099851360709
H          -1.35574735193026   -1.08203521051171    0.73896539922085
H          -0.73218374719334   -0.44408402222539    2.11529927881681
