    19
        -40.92045058
S          -0.78522881274904    1.33231069948543    0.40654123462134
O          -1.26483454640852    0.08202890262857    0.99039587794713
O           0.51893785340043    1.70199842030129    0.92284242939528
O          -0.83493828535514    1.28937847288558   -1.04482590003229
O          -1.78122605728781    2.47404186092046    0.86578890210765
H          -1.38607881587914    2.79819569872001    1.66958796007241
O           1.20580971910445   -1.60097793769170   -0.78669314053498
H           1.59205559414929   -0.63174876603396   -0.96622109294410
H           1.11335630224874   -1.65764297059864    0.23558203660247
O           0.66565434358175   -1.48033243671292    1.68413098174883
H           0.27814609353523   -2.20874414138925    2.17312083830383
H          -0.05717746573067   -0.81049400015128    1.54575674699658
O           1.84693216928214    0.80182704340964   -1.10619987156344
H           1.19715942810616    1.13853003041419   -1.73669824998930
H           1.54631888217508    1.19440732741429   -0.24664615969648
O          -1.20869016202319   -1.23752829783958   -1.40986520552943
H          -1.16134068209260   -0.24843163946929   -1.46694417872908
H           0.21719204294093   -1.55795921785157   -1.13679539350353
H          -1.70204760103317   -1.37885904852824   -0.59285781529561
