    19
        -40.92179450
S          -0.94623855040725    0.03606530207358   -0.16947757538048
O          -0.09568345134572    1.15985321335658    0.16833839987259
O          -0.05086615850482   -1.22987326317493   -0.27157328823042
O          -2.01813973829904   -0.19214828586590    0.73931712243092
O          -1.45744521342356    0.19022451602324   -1.59780140198795
H          -0.66174241996697    0.03423879535278   -2.23038631964607
O           0.65363905190291   -0.27073136934474   -2.91114633078702
H           0.91249972943422   -1.11375082245624   -2.52718782929536
H           1.26144242978391    0.40445252620070   -2.51803031496326
O          -0.16467254692402    0.60204189306394    2.81569606751045
H          -1.08170884188818    0.81575223485659    3.00690625031230
H           0.00293065425749    0.96475863045450    1.92943861629974
O           1.96524092640296    1.51191336531392   -1.47810764600663
H           1.29277540147326    1.44028823380453   -0.76992423322484
H           2.00628242725692    2.43909391197387   -1.71991415864459
O          -0.26673366837409   -1.97002881435643    2.14147473658481
H          -1.22088096824520   -2.08848920124578    2.17892405322540
H          -0.03524506882961   -1.64514516047219    0.65944223683782
H          -0.09545397430716   -1.08851571555569    2.55401161509037
