    19
        -40.92453851
S           0.27749672368945    1.07004805711433   -1.04913671148327
O          -1.13184700919423    0.70718533562992   -1.15112324886313
O           0.56680324207696    1.66135186095295    0.25222855977272
O           1.15924807428557   -0.03386471823814   -1.36555836434728
O           0.54743694072225    2.18396206601848   -2.13595348585621
H          -0.03659069862411    2.90026533744256   -1.90398773017543
O           1.87549706264358   -0.34810334283888    1.25770016637660
H           2.30876406757960   -0.64929935257310    0.45061730856408
H           1.48527697909370    0.52420875907000    0.99972478349674
O          -0.30177810346176   -1.60607811950634    1.43258442859199
H           0.65433773367902   -1.18098116014163    1.46578043753572
H          -0.94745330195073   -0.79032060918367    1.53735420383706
O          -1.66370904186769    0.51260733729272    1.37785753211966
H          -1.64812416206695    0.61641669965465    0.39233254355569
H          -1.07319428658013    1.20920519111637    1.68805104207570
O          -0.52841007093579   -1.98250660747308   -1.04941895917273
H          -1.32228037439849   -1.50745348718545   -1.32248713270692
H           0.20616857465946   -1.37668423750769   -1.31551792559453
H          -0.42764234935055   -1.90995898965385    0.43895252228282
