    19
        -40.92078066
S           0.40999940614550    0.84330841327063    0.45909064704143
O           0.40255196927421   -0.65525604372459    0.88763317754610
O          -0.17134497143106    0.92033439262114   -0.86526297849728
O          -0.24753931944603    1.63065872757470    1.44593853173299
O           1.89847518164963    1.16030659027182    0.39701740641605
H           2.37213516423954    0.36641452776744   -0.04918472386846
O          -2.72049606171868    0.73555653501385   -0.01511196546848
H          -1.87127858024903    0.81989429551574   -0.48393068837930
H          -2.95477139897122    1.62582304515097    0.25733508567772
O           2.78900050662191   -0.96523960552549   -0.65291524624206
H           2.39129767803495   -1.60129862143592   -0.05043762505187
H           2.25530210748428   -0.99672143363998   -1.48082384081676
O           0.93330714916748   -0.83282949352229   -2.54548127537592
H           0.25514902164257   -1.47150176431369   -2.77303237875076
H           0.48350801371744   -0.10831923583251   -2.06759771341447
O          -1.81385315147192   -0.59995741977342    2.10742618305353
H          -1.61336744757470    0.16267431318451    2.66085310727171
H          -2.33772918249515   -0.24049404910155    1.35280311434616
H          -0.46034608461278   -0.79335318350480    1.41568120277924
