    19
        -40.92158965
S          -0.60939903411811    0.50546571972476   -1.24528372706833
O          -0.07056551452931    1.69222092519223   -1.85193129810791
O           0.32389425104182   -0.60462232751640   -1.12384589681412
O          -1.25550818032409    0.77960745080578    0.04482586196404
O          -1.75385346451709   -0.02446830150346   -2.20499820840152
H          -2.13453672312398    0.76701232408120   -2.57307623308952
O           1.10858653385396    2.38370365666133    0.43387718440492
H           0.33964907814764    2.66755939847281    0.93380008936216
H           0.79068575452412    2.26286950283628   -0.48215192138972
O          -0.55568640107046   -2.67194933731477    0.22068096033021
H          -0.29893014256793   -2.00497308941649   -0.45902903478559
H           0.10110062724024   -3.37016606050033    0.18271838994505
O           1.84680157344917   -0.08778581617620    1.00473202197793
H           1.60306140779249   -0.38121572904892    0.10462885547045
H           1.80154850301480    0.89585795626729    0.94356464196277
O          -0.41593301674739   -0.70122346382316    1.84445413431163
H          -0.88477669814871   -0.04176735238444    1.16780776868731
H          -0.54895644765928   -1.60304156286801    1.39711208077831
H           0.61281790374676   -0.46308390348518    1.66211431046484
