    19
        -40.92343631
S          -0.55221015501279   -1.57934250608798   -0.21344687476827
O          -0.51230378965859   -1.23817016374689   -1.63647404543718
O           0.76613294154514   -1.86755126107430    0.30970695827907
O          -1.25166728123891   -0.56794602483428    0.56301889989238
O          -1.41128914255849   -2.89506586522399   -0.10043666072364
H          -0.93223844057333   -3.50612362490987   -0.65142979867632
O          -1.28817438178523    1.96391625611547   -0.27903883286977
H          -1.55754157289420    1.06031191203489   -0.01230026273816
H          -0.89279292324395    2.35033839441371    0.51010455649985
O           0.29742114088942    1.03486238847474    2.00527337247025
H           0.47190535907623    0.72872309293454    2.89631473033342
H          -0.30242067394917    0.37077780661444    1.59917828881756
O           2.05164201609012    0.39865860171486    0.07277628315376
H           1.63125628830628    0.82116816990578    0.85084468355927
H           1.78270377372739   -0.54795215433395    0.14746182455740
O           0.52184113029171    1.01422165896319   -1.79572067427922
H          -0.20114170735721    1.55362059471812   -1.30313275548420
H           1.28910283153537    0.83917076559839   -1.07234762374281
H           0.08977459667708    0.06638195881733   -1.89035204887650
