    19
        -40.91893391
S          -0.11141048580667    1.33691228963976   -1.10093641872730
O           0.07050918234066    1.58611017448055    0.31571245332283
O           1.10371306692338    1.29469289435622   -1.87468123883986
O          -0.95203584939670    0.15095009510398   -1.32431892807269
O          -0.95350626151842    2.56297704474767   -1.65481116824539
H          -0.72174502667498    2.57987786285449   -2.57843075871823
O           0.95543474886114   -2.47501582366083    0.29915897666114
H           1.10038050159852   -2.95076959516836   -0.52104583852337
H           1.50303620518505   -1.64605538050840    0.23825984299887
O          -1.13960749752003    0.34629643003862    2.24173239211995
H          -1.91268802833805    0.85553205736522    2.49191846220833
H          -0.63608438716064    0.90419278951174    1.59384308705705
O           2.19346018976029   -0.18165623548321    0.02076505729785
H           1.94611505754564    0.30029169609972   -0.79473004501730
H           1.96010360486007    0.42364033693788    0.73105165713506
O          -1.35723078049021   -1.46968627495967    0.48226564213132
H          -1.25854490678092   -0.78673819128446   -0.33546128056265
H          -0.45416675373058   -1.97778170654111    0.46811631165877
H          -1.33573258963921   -0.85377047353410    1.30159177410268
