    19
        -40.92453853
S          -0.81035236929966    0.97731913561670    0.84299896252565
O           0.48443121937848    0.80314625353716    1.49213267247425
O          -0.65156497610500    1.57910855034292   -0.47588736162369
O          -1.58139771921998   -0.24752983470394    0.80489771619294
O          -1.63465305021538    1.99770616968969    1.72295784945658
H          -1.11279753030532    2.79488485092865    1.72874895651047
O          -1.17085730612287   -0.54327044498103   -1.88531195179835
H          -1.83661865338432   -0.93429978116526   -1.30768014726876
H          -1.03805274389489    0.36174956329743   -1.50706001775687
O           1.97843940732850    0.79012727838562   -0.62567191895761
H           1.46336937712644    1.41365964393788   -1.15105678828070
H           1.56693902736177    0.84864141045383    0.27405478831778
O           1.05666221577611   -1.48824758536657   -1.17946405249707
H           0.13891571851287   -1.19454372061320   -1.58898581298700
H           1.57086062579359   -0.58951064989116   -1.03476869060072
O           0.35198005780927   -1.93648746547496    1.19880592614665
H           0.82812038623242   -1.81460050377062   -0.21165711199300
H           0.90195113296834   -1.37112450713757    1.75411199704113
H          -0.50537480978761   -1.44672838317491    1.14883498508537
