    19
        -40.91624660
S          -0.41189098670938    0.30821825433215    0.75942541044373
O          -1.29510728593957    0.83682315412960   -0.25037652438141
O          -0.01205108998905   -1.12398350889625    0.35749744550147
O           0.75684883933816    1.08175810621259    1.03312062852338
O          -1.18835317288796    0.10012900636897    2.07536366343167
H          -2.11443214850764   -0.15520011204687    1.82323418336963
O          -3.45830596136083   -0.20055586385919    0.86120350720100
H          -4.15548062495960    0.42383756181141    1.07701824842120
H          -2.90717613380340    0.21188730702955    0.17010307363211
O           2.89548389111688   -0.62583899168108    0.65112170880588
H           2.44071723298405   -1.47094182548787    0.67559991820419
H           2.28968575253285    0.01374967176933    1.05542008774263
O           2.13076246028638    0.89009773260025   -1.48040753983425
H           2.70832073056526    0.31944411025195   -0.93853892903225
H           1.70895430637121    1.47466544724182   -0.84036430422218
O           0.16111339616576   -0.71637773481337   -2.10397678939092
H           0.06677700887119   -1.11646813592024   -0.67936394585824
H          -0.58690885981846   -0.11442520778298   -2.18103044715046
H           0.97104266573253   -0.13681897125823   -2.06504938539732
