    19
        -40.91476082
S           0.44197622904511   -1.02207962921849    0.53787608550980
O          -0.83683944864048   -0.33437291098356    0.81441069946932
O           0.46732685795192   -1.52515534156740   -0.81928842796708
O           1.56018785658521   -0.14897487106298    0.86812801087754
O           0.52077467814288   -2.23652599720673    1.51848740230134
H          -0.24680119851572   -2.79604084490047    1.28036073879262
O          -1.66601798064863   -2.91992837482398    0.19539644688670
H          -2.00249218822385   -2.04832000530478    0.43699894464986
H          -1.10003786547444   -2.76802714853151   -0.57350917297227
O           0.35525074062594    2.91596407717452   -0.67179656951522
H           1.22526974212222    3.28397679265843   -0.84194822069761
H           0.27096795837325    2.12752977668059   -1.26781822341835
O           0.23389210168345    0.74587544017351   -2.15852729764859
H          -0.54898052110641    0.59622591680813   -2.69252588513691
H           0.42023241419777   -0.10603832112264   -1.70796648024433
O           0.19577684566548    1.76080970273923    1.56914679064414
H          -0.50506387254470    1.01604034481218    1.36376017609530
H           0.99914430406688    1.10732341965764    1.43730237434240
H           0.21543336671454    2.35171798393877    0.71151259805532
