    19
        -40.92136409
S          -0.86106258814951    0.91195820672925    0.59051805763124
O          -0.74296310156679    0.80450112896380   -0.87438526322235
O          -2.16629797960860    0.52336860925978    1.06397843813969
O           0.23554223628055    0.23551298964784    1.24579087082069
O          -0.69235346916079    2.45923456611603    0.90451902839168
H          -1.58193385362083    2.80050251250582    0.88269743988873
O          -1.48610551715447   -2.01533411838683    0.87234736883123
H          -0.89131558343014   -2.09414567229172    1.62338190719815
H          -1.91598307829715   -1.13590063072012    0.97420131269636
O           2.01491749256342   -1.00381335264606   -0.22463415428634
H           1.53800720441615   -0.61732137953876    0.54521094868628
H           2.27189153703369   -0.20595651363889   -0.73754818538362
O           1.83749035012263    1.47559221048109   -1.18505145414211
H           2.01788433078540    2.17073629786268   -0.54996421939527
H           0.86856140339555    1.36028682055007   -1.19105286050441
O          -0.15292287082135   -1.60268264240597   -1.26407624200408
H          -0.69993176168902   -1.96129738388103   -0.47620509876078
H          -0.46293534230522   -0.62462104677939   -1.30766548854179
H           0.86951060153402   -1.48062061130019   -0.89206239628681
