    19
        -40.92453828
S           0.84155098499675   -0.45069017274987    1.18801743134754
O          -0.52000734761231   -0.23833390486361    1.66685403108182
O           0.88212275554837   -1.52531922798256    0.20282501407481
O           1.45655449559764    0.76822506015913    0.70614656848204
O           1.69894602873080   -0.92477136360830    2.42693811368263
H           1.28905193128287   -1.73535468124475    2.71434344261874
O          -1.79939480154950   -1.25414100546288   -0.34474107558915
H          -1.16487836879338   -1.94616021981477   -0.56566191450497
H          -1.46946354941551   -0.90425834134979    0.52195780331155
O           1.26574816347485   -0.04493582350729   -1.90053757743329
H           1.21035517834147   -0.74732266061375   -1.20545171973514
H           1.82159508801128    0.63084645164396   -1.49545415843328
O          -1.11729994400120    0.75326679291423   -1.70515340339981
H          -0.13635977612548    0.46719477113455   -1.93235067777125
H          -1.52823888673564   -0.08950479351674   -1.24200911595409
O          -0.69806113498396    2.17115059519225    0.33631226143495
H          -1.02217740936533    1.45279168180101   -0.93240951950398
H          -1.22390543138103    1.78411799357167    1.04630261189268
H           0.21386200399366    1.83319883851754    0.51407189422902
