    19
        -40.91833205
S          -0.68979804203281   -1.20700381626177    1.02304694124039
O          -1.68159377143006   -0.26626867670992    0.47881522970688
O          -0.65666062136403   -2.44240114961432    0.28065421355995
O           0.60145149152921   -0.57029820897694    1.19222050081602
O          -1.19567546471665   -1.56229456079486    2.48189335329871
H          -1.90290099206219   -2.18050299692328    2.32454456056738
O           0.40445657944177    0.82115503469038   -2.35244432456888
H          -0.13865644002907    0.62400223520775   -3.11782214052488
H           0.72560612447140   -0.05866534535914   -2.00938399583148
O           0.97441418865330    1.98640633227690    1.37854303442013
H           1.88141720572678    2.14279357090421    1.10766038765116
H           0.87681547969593    1.00490145528784    1.47940044953615
O           1.15937880785666   -1.48327419805304   -1.36478012985625
H           1.79485508978388   -1.29841930426678   -0.66732226299163
H           0.43917118985319   -1.96282800064630   -0.90289532625865
O          -0.83843284312577    1.86509120180419   -0.39854869306877
H          -1.28956715615565    0.97096943309532    0.00033196368387
H          -0.12379580809137    2.09092676149406    0.30004165193096
H          -0.34048501797327    1.52571023300734   -1.23395544325723
