    19
        -40.91904987
S           1.09118915700182    0.21303020164305    0.35182438670325
O           0.98021655203690   -1.15034524471092    0.75526647108872
O           1.28780331434842    0.45459613193465   -1.05562983918895
O          -0.16158360980303    0.99770223277878    0.78601883824732
O           2.23569839627105    0.89248434344261    1.14376957979457
H           2.28750623295795    1.81033294930499    0.77799460536444
O          -0.14986476275507   -1.73877160098744   -1.79414393202424
H           0.32564764871560   -2.34808843611089   -1.22247349710380
H           0.35913024981294   -0.91323185430517   -1.75701639141180
O          -2.51357101520864   -1.44733310353698   -0.55119650307715
H          -3.03861144388959   -0.82659304991674   -1.05845467729557
H          -1.69543239711771   -1.61145412125088   -1.07228858841901
O           1.74197247232560    3.00340263288378   -0.30066514174096
H           0.86772361819497    3.30007280537779   -0.03339950487041
H           1.60562772272720    2.31296022679883   -0.96914525983450
O          -1.54881274278309   -0.79598947086478    1.81491933998225
H          -0.80872314724523   -1.41279649027866    1.88342187892306
H          -0.81009406448788    0.34259121081275    1.28898651914279
H          -2.05582220127680   -1.08256934295894    1.01221170578135
