    19
        -40.91821045
S          -0.81040644304468   -1.78466949973929   -0.31772174110922
O           0.08767763513557   -1.84841504197478    0.84792801152216
O          -1.80723052946170   -0.74018397815390   -0.13503111975378
O          -0.09719579530881   -1.68370894146854   -1.56460605899948
O          -1.58514013410168   -3.15880962286952   -0.31891937635075
H          -1.98838425223373   -3.16832236186484    0.54380778704537
O           0.52070393018447    1.96493280340762    1.70968988016152
H          -0.13355283980639    1.93813462638578    0.97651316699469
H           0.97433303186928    2.80795876082397    1.65199422871749
O          -0.96216917810343    1.65213937239959   -0.49716635286018
H          -1.31944476911639    0.72764918110197   -0.35425310389623
H          -1.71161147321512    2.17052015084284   -0.79485465063648
O           1.31037031576231    0.50672439719864   -1.52907625990385
H           0.56975133991084    1.12381531529289   -1.39833072313834
H           0.87863233990774   -0.35193124947623   -1.75651686292321
O           1.81450669689122   -0.09407732766742    0.85055993606263
H           1.76186135779854    0.17446111790651   -0.16951297506380
H           1.37570589628606    0.67511161186882    1.34293216413080
H           1.12159288039722   -0.91132931424886    0.91256403985055
