    19
        -40.92453852
S          -0.29873111978526   -0.29088055404550   -1.46581572199129
O          -0.73204744009479   -1.45506284698765   -0.70168963645224
O          -1.06360026250180    0.89189778918671   -1.08599507423868
O           1.13092946078263   -0.07616695926105   -1.38717755553751
O          -0.62432879649508   -0.58379868600702   -2.98338010608837
H          -1.56578827398445   -0.72796784550735   -3.01001760944632
O           1.34626696683401   -1.63862906879048    0.84992224232344
H           0.53830588004625   -1.76178523751107    0.29146537988176
H           2.01737249078438   -1.35637799320250    0.21765863450789
O           0.55975306512328    0.43038272728077    2.05524805750282
H           0.96773337107725   -0.45823040917382    1.68045386089467
H           0.86217376082438    1.17158837362888    1.38089293868908
O           1.12696856295014    2.00309305694205    0.16900976666786
H           0.29052688384061    2.38095051656625   -0.12774199149845
H           1.31351885559941    1.30074647553563   -0.50133651204368
O          -1.81546055712975    0.12378952730691    1.27255436673445
H          -1.90644108908994   -0.81670296301334    1.07942390237461
H          -0.46701453419354    0.33075812914720    1.88670611156361
H          -1.68013723459816    0.53239597791438    0.37981897614766
