    19
        -40.91907689
S          -1.24276076657678    1.05175103214969    0.36124614251853
O          -0.79373555088143    2.42421141537661    0.34010581011136
O          -1.23589038675115    0.40231417626996   -0.92951731377321
O          -0.49875387019636    0.24981941169410    1.35551314913973
O          -2.74177243533347    1.05847033307205    0.87022799889799
H          -2.79145541780870    1.78074614604100    1.49107115352353
O          -0.99108977970645   -2.06423635892069   -0.02464059879699
H          -0.98179095782896   -1.67690045316011    0.86016050764923
H          -1.24103213252524   -1.30658488469149   -0.58984271340764
O           1.82057701653929    0.10069530846594    0.48739262693554
H           0.88720876122616    0.16632658411010    0.97604093745048
H           1.82397868948277   -0.84215430082235    0.04912597202944
O           1.55997934007937   -2.19076602432887   -0.54619480985966
H           0.56629411186130   -2.25551518674834   -0.44086261005356
H           1.93678997678574   -2.94533682595289   -0.09004221223518
O           1.13819730079846    1.74930141206209   -1.30016636422658
H           0.53992288608603    1.22762595859690   -1.85086900311657
H           0.52960412644691    2.27731286884550   -0.73648271475799
H           1.71572907829886    0.79291936792525   -0.28226596804449
