    19
        -40.91833235
S          -1.41817101415782    0.59968788575497    0.77993705138635
O          -1.44942793333477    2.01750369199956    0.52027058170221
O          -1.71164861169106   -0.18623092224596   -0.42878423349028
O          -0.20929941535734    0.13290295639403    1.42969335308855
O          -2.60255419200818    0.29181552622778    1.78599124578704
H          -3.32047877232678    0.81655576926317    1.44495639216519
O           0.83965072654600   -2.21218638739139    1.09442076304994
H           0.39896540543693   -1.37354522219898    1.38656007989948
H           1.76922889687203   -2.12150604588197    1.31381866553013
O           1.64127905578988    0.23356315768004   -1.90110481058134
H           1.48239677461140    0.94231740075158   -1.21728947161371
H           1.45963489713504    0.64033972148364   -2.75033192288233
O           1.11087867801290    2.04252644961133   -0.08487554785531
H           0.14922158631107    2.19808191974128    0.03033815102799
H           1.38785632167401    1.68458464782077    0.76345042469497
O           0.06849700950145   -1.65600047687329   -1.26261271797964
H           0.43036885566793   -2.03634236302096   -0.38276623452053
H          -0.77302756648399   -1.06490258876552   -0.93997403435490
H           0.74662929780568   -0.94916513039809   -1.58169772505472
