    19
        -40.91285620
S          -0.99686089817274    0.08631241115434   -1.38860382230893
O          -1.37687339218353   -1.11559570581623   -0.63522577864344
O          -0.73935680879037    1.19820111481781   -0.47986498097786
O           0.03451792267352   -0.15528782124839   -2.35816596354648
O          -2.29392382588997    0.52010790155025   -2.19442238227683
H          -2.33183640734155   -0.06315057380339   -2.94730988034696
O           0.42154671445363   -0.36260697979253    2.72635753310056
H           1.01342510109772    0.03101132609282    2.00922154375665
H           0.56268691360502    0.16266719947104    3.51644060221549
O           2.32458169218744   -0.88714551772950   -1.18841905169668
H           1.48792607358499   -0.72112733555498   -1.66738435023900
H           3.02925766575597   -0.69137766436241   -1.80888843519386
O           1.64812921643097    0.79918088282522    0.78226615480043
H           2.06330976466213    0.14845504533233    0.17757483388773
H           0.89246853923362    1.15040718608306    0.28148637198524
O          -1.72598929208257    0.00701389387641    1.48911699188436
H          -1.68372074887673   -0.68881229685107    0.67071402396303
H          -0.88434967699510   -0.20946676810628    2.09356583996682
H          -1.44493853334168    0.79121372206695    0.92154072966368
