    19
        -40.92217277
S          -0.76970177368449   -1.13974150546336    0.11603806415012
O          -1.03097664014348   -0.14859808216973   -0.93555549014561
O          -0.49657762880211   -2.45056727456863   -0.39927070387099
O           0.18552748085680   -0.62951000133577    1.08356394926482
O          -2.14288932907207   -1.24129957206262    0.93073815223257
H          -2.58131333214985   -2.00645311013112    0.57034164987868
O           1.44371462645843   -1.21835837462196   -1.79962036569997
H           0.91896198723341   -0.90743988345667   -2.54116297562313
H           0.86209888100798   -1.82346940408941   -1.30629586161703
O           2.21301069930188    0.68125144069137   -0.08406984725324
H           1.81632542351320    0.17715290791240    0.64824809974604
H           2.19184924059384    0.04115646038774   -0.82936342213486
O          -0.86708513935818    1.62703139000623    1.87951191024547
H          -0.47786240698248    0.72598295873216    1.79877084395948
H          -1.81494366262369    1.50073996138321    1.95442711234713
O           0.11782142579037    1.98866958054445   -0.45680337433512
H           1.09752448994434    1.57812367183974   -0.33410771979468
H          -0.41931553574234    1.13781443690958   -0.77836913833290
H          -0.24616882613135    2.10751440948332    0.48297911696738
