    19
        -40.91893425
S           0.67246909507664   -1.27923195016236   -0.96103411184885
O           1.79316796050702   -1.78000197190000   -0.20613929966619
O          -0.62158345211128   -1.45779227722770   -0.33238439560684
O           0.86771639492590    0.11670143395883   -1.38152418207074
O           0.62339661555879   -2.12234850352956   -2.30498787897392
H           1.54257876974590   -2.30224530131938   -2.47755668154543
O           0.75199531470968   -0.67816125750865    1.95350702725053
H           1.30785858776910   -1.09604162331833    1.26453946734119
H          -0.11220020357494   -1.08412983868218    1.83653480066942
O          -0.56316065161078    1.91345086046784   -0.50009189427824
H           0.06745519616560    1.17831866298825   -0.95599567255883
H          -0.13763256827502    2.03160821142308    0.43704559460389
O           0.59697984393672    1.93077876810098    1.74672255290964
H           1.50263917444746    2.24413669941887    1.70603220925793
H           0.65035765405481    0.95282170442270    1.92305762458101
O          -2.51110942947496    0.31092808996546   -0.21685317824028
H          -1.44472594841478    1.40891752193075   -0.36212056169503
H          -3.11070525985177    0.16314105367027   -0.95049629137313
H          -1.87549710353237   -0.45085030270719   -0.21825511874353
