    19
        -40.91483137
S          -0.44314479871264    0.84876084082382    1.13318356721301
O          -0.09092248351284    2.27897068638849    0.74903635877536
O          -1.46290943423091    0.33403185652259    0.25666764492472
O           0.72970785019558    0.05509131820796    1.27995205654408
O          -1.09609480836269    1.03145227544546    2.54666783746545
H          -1.94258745071196    1.45733210848964    2.42522688284070
O           0.37728375114007    0.15208617874084   -1.83718631932633
H          -0.45644327294802    0.26346442642693   -1.36471358047603
H           0.72973155317408   -0.72373765878590   -1.53959480920676
O          -1.61296985660423   -2.37195053259631   -0.18837142954253
H          -2.16920498276294   -2.51023097726074   -0.95755498160890
H          -1.66421966784404   -1.42577772884832    0.02433921181416
O           1.09399548481523   -2.04022039429363   -0.52483211567879
H           0.21499239037470   -2.44649399050124   -0.42435198412256
H           1.21925792315353   -1.52372574526226    0.28205196120782
O           1.91103955694207    1.85677297496031   -0.64689994363478
H           1.42532067817608    1.24800683576379   -1.28175118319680
H           0.78950937944968    2.23417506469393    0.15972086501927
H           2.44765816827117    1.28199248107941   -0.09159004900564
