    19
        -40.92120577
S          -1.14169356167861   -0.64737790374721   -0.42587263888200
O          -1.24149683341845   -2.08031115847480   -0.38388780768867
O          -1.15799241583568   -0.02691100009807    0.89936495131328
O          -0.05318640323007   -0.12449244079454   -1.23539126372371
O          -2.46288551612062   -0.11631308385365   -1.14913820028152
H          -3.12894232391970   -0.75703825482828   -0.91873567093673
O           2.22655963480359   -0.03508397132194    0.16384056588749
H           1.66138854424921   -0.07565498973056   -0.63061384645024
H           2.01912414570299   -0.87516781192897    0.62680479009428
O           1.02516246010799   -2.25380465407701    1.01195084895932
H           0.16214172574316   -2.23287797653976    0.55472784467877
H           1.32134045954850   -3.16609499378238    0.98514338292137
O          -0.26444140415037    2.47396789144072   -0.98647834172405
H          -0.19986698061630    1.53786090073336   -1.28618219799314
H          -1.19509707804436    2.70242335394840   -1.02210836733285
O           0.67437557860018    1.60091204840693    1.23197238361016
H           1.46765496766545    0.98207801607186    0.87495325613881
H           0.41294624415782    2.17842367712062    0.44027067258634
H          -0.12509125356204    0.91546237145437    1.24937962881765
