    19
        -40.91451123
S           0.84378054597598   -1.29302408077608    0.06067534958224
O          -0.63112429307639   -1.63827625440649   -0.03494228539984
O           1.39349245027729   -1.10249938904539   -1.24450521060317
O           1.05948047502725   -0.26227404191281    1.02958303080703
O           1.49242236235652   -2.60640782758895    0.65413488401648
H           1.58115769809213   -3.24271190610228   -0.05303859062411
O          -0.32549223586213    1.07833897707587   -1.51837836914955
H           0.04910271415077    0.21281625550376   -1.71377143585905
H           0.43890453331157    1.61976715531128   -1.23956530044063
O          -2.35459158328549    1.48250220312800    0.17405950265229
H          -1.61599496013467    1.40327094415452   -0.47200337251699
H          -3.16005897663754    1.32450924817828   -0.32115810259774
O           2.10137308889095    1.75477581999867   -0.51616828139339
H           1.85518061544736    1.17518402205216    0.22054190405650
H           2.62427600154724    1.21262233647696   -1.11184464511871
O          -1.55939319121017   -0.34330127710641    1.84252607527611
H          -0.69488103747503   -0.01851330386394    2.12912833143240
H          -1.96984335367803    0.40597286401008    1.32008702421729
H          -1.12779084374336   -1.16275175510672    0.79463948172730
