    19
        -40.91893399
S          -0.07831349493114    1.52157193470535   -0.83259999575496
O          -1.47942794588569    1.83978374280963   -0.94266800726037
O           0.37245944955504    1.48160878384077    0.56690355693990
O           0.34103300524687    0.33282347175324   -1.54872335537741
O           0.70949406510929    2.72943436589730   -1.49648384366256
H           0.15175809684222    3.47829998820459   -1.30870531317411
O          -1.19715847553579   -1.52130943336302    1.84413048022885
H          -1.72392442720852   -1.04044357147537    2.48551209533078
H          -1.56928058689716   -1.28883547927858    0.95101816839306
O           1.15017844752215   -0.61603725493731    1.59005536130578
H           0.86710748675970    0.33866018223780    1.19686910956726
H           0.23597404819276   -1.06667707968935    1.77593140195068
O          -2.01615484418923   -0.70756259548062   -0.51037826249279
H          -2.01359171967835    0.26485206372042   -0.62226568547119
H          -1.43149447734496   -1.02563592459852   -1.20488046113527
O           1.94795051421963   -1.49201619154711   -0.65476435428434
H           2.83581007456242   -1.28666072552777   -0.95325928089642
H           1.55274919247302   -1.09153075937588    0.77615497692332
H           1.34483159116440   -0.85032553791552   -1.11184658113444
