    19
        -40.92343652
S           0.96238359306670    0.60603380626504   -1.24576048424329
O           1.41862968887200    1.55279328069327   -0.22693837255291
O           1.58224560827928   -0.69275873234947   -1.09206346774394
O          -0.48904512458812    0.52902972528315   -1.29712134857126
O           1.42220433812440    1.19528844244975   -2.63257858748157
H           2.36754014745414    1.25232784229826   -2.53358496261639
O          -1.55855579981953   -1.64592923677299   -0.21415127441580
H          -1.68059551390644   -2.37781762945647   -0.82035609180611
H          -1.18647457519627   -0.90774519428071   -0.74561613734320
O           0.39390041443402    0.83277388005383    1.91805465664647
H          -0.59336149985377    0.99022013110046    1.67998779997560
H           0.90440426954220    1.24586904109939    1.10435920891667
O          -1.92578136427049    1.04456489305915    0.89174012528537
H          -2.38359754170319    0.19744497819071    0.92697309362216
H          -1.53851286051933    1.08731928063386   -0.00732021192679
O           0.70822625678138   -1.53949382974572    1.22332556187157
H           0.55768853890199   -0.21458701806143    1.77664876514211
H          -0.18010695601203   -1.79409560864903    0.89670036574253
H           1.21880840041708   -1.36123808181046    0.39770137149862
