    19
        -40.92343665
S           0.98028442512494    0.98683424845314   -0.95419979407828
O           1.51862553229069    1.43485950991250    0.33102496200824
O           1.50975853733753   -0.30344161919288   -1.34103479689963
O          -0.47357502211856    1.02081752128349   -0.96944148502551
O           1.45823504125575    2.03992243254458   -2.02402669578737
H           2.40667249852845    1.98986662086897   -1.95747363039585
O          -1.83392693384569    0.72479126606685    1.30731197661042
H          -1.46024979003056    1.09223531135057    0.47941916958311
H          -2.34839949848759   -0.04174920996507    1.03127949440236
O           0.62022761791581   -1.93178966725165    0.50336813192306
H          -0.28895124853723   -1.98799754958643    0.14169581237205
H           1.12775006837528   -1.47666749830251   -0.21018207516632
O          -1.67126135519258   -1.33988626426937   -0.76747359367445
H          -1.25834607280780   -0.47559552422919   -0.98718812828082
H          -1.85153001448256   -1.77090918716449   -1.60398148261480
O           0.48244816477879   -0.00092033388790    2.07272085654872
H           1.00660489240904    0.66563876678146    1.46070895227926
H          -0.49557827958911    0.29264056307981    1.95569499044273
H           0.57121142977124   -0.91864937586058    1.53177736616917
