    19
        -40.92120597
S           0.86139100263422    0.05643631699499    1.07478195331259
O          -0.52681676274457    0.46954155463677    1.28329777979767
O           1.21926546661946   -1.12616456668692    1.80847031527286
O           1.19416124667648    0.03342545173000   -0.34023749359395
O           1.74267144037496    1.24901507552806    1.66886615527621
H           1.87811900914528    1.00838042460007    2.58050195253484
O          -0.63145939434963   -2.54424462245297    0.50981698323048
H          -0.46673394045739   -3.47469881563612    0.67648712276155
H           0.01717390728996   -2.05067993228284    1.04804588608566
O           0.35515014523797    2.35318133621874   -1.22008108957764
H           0.85630267742525    1.54344937564935   -0.96854039511733
H           0.57195738701856    3.01614273051274   -0.56191917811364
O          -0.72842612827974   -1.16348214387778   -1.76495856647027
H          -0.89009376856389   -1.82609031442800   -1.05977778448155
H           0.16963077561405   -0.84023560512383   -1.56148899273944
O          -1.73274386429456    0.91997847531751   -0.82883289681979
H          -1.36467900032007    0.72909038209091    0.13923771881213
H          -1.07497863927049    1.62316201948407   -1.14731000531495
H          -1.44989157976066    0.02379286771746   -1.33635946486617
