    19
        -40.91833243
S          -0.28081101520820   -1.66943207232503   -0.33709663776145
O          -0.56714084536481   -0.55412719363962   -1.21775823699007
O           1.02097142499728   -2.26048801608004   -0.52254722782687
O          -0.52686230381486   -1.31553338728846    1.06972607865982
O          -1.34673712971254   -2.78767881739658   -0.68710198293976
H          -0.99115303829735   -3.56672524858325   -0.27030592891596
O          -2.06639706834908    1.46799166726655   -0.60305260652069
H          -1.78653067798811    2.18890870648060   -1.17085570076321
H          -1.62516740861194    0.65043205721200   -0.94897049939505
O           1.53926935424040    1.73792377141222    0.98681768771876
H           1.79324445481802    1.14212099193526    0.22792975827422
H           2.18853893772897    1.58105141121250    1.67490271676758
O           2.11328573346759    0.09143908974713   -0.96501003756900
H           1.52432368043223    0.30178237811949   -1.69550918395832
H           1.89444060809419   -0.84047673895021   -0.75112522308935
O          -0.83588774630996    1.06433785234328    1.58410229358305
H           0.11591259580370    1.41161334887936    1.39784339101676
H          -1.41709033404139    1.35645004126593    0.79277621267565
H          -0.74620925186406    0.00041016835331    1.43523513703465
