    19
        -40.91191030
S           1.53970879478010   -0.54221219337925   -0.13753141248132
O           0.86345216892049   -1.47367310716283   -1.06686657883707
O           1.16367304238735    0.82890039595029   -0.47956968448332
O           1.36851837380860   -0.87560049735372    1.23960210975395
O           3.08137821904050   -0.67343996635185   -0.45138753227031
H           3.19626437531827   -0.41918731963307   -1.36336976679663
O           0.19392177285271    1.94951597508951    1.79385333069845
H           0.59954479047565    1.68381338320579    0.94966818950958
H           0.82886976810374    1.71183828498472    2.47286235613584
O          -2.61863143203106   -0.32178147410267   -0.57779503924683
H          -2.99848920083029   -1.19832373352734   -0.66559512377819
H          -2.15568860927296   -0.30226180793532    0.31626423339004
O          -1.25244822992116   -0.31563731958024    1.61139871289828
H          -1.01376232096007    0.61169849354970    1.81464546016840
H          -0.39092937763896   -0.76392444999842    1.56277636818860
O          -0.67083821908510    0.08998386191132   -2.09324368808558
H          -0.01860010690480   -0.74856360005700   -1.75557719010683
H          -1.55925001223658   -0.04360415543597   -1.53391488928496
H          -0.15669379680612    0.80245921982539   -1.63621984537498
