    19
        -40.91346208
S          -1.00812214339964   -1.38588086253087   -1.12115914231781
O          -0.17643516519023   -1.29991146903121   -2.28081797426473
O          -0.31437904948616   -1.46938158987002    0.13438822359316
O          -2.03132967723050   -0.26229056692164   -1.09654365095565
O          -1.91607010846050   -2.66012439726965   -1.24863054479241
H          -2.22122763233641   -2.69880295655638   -2.15293240471271
O           2.23584047608371    1.12158933965555    1.84903096247506
H           2.48397440343258    2.04682311473249    1.88723810587649
H           2.24448946730487    0.86521097042657    0.91588989515122
O           1.49704558503072    0.32467597424828   -0.74298242992658
H           1.03994154138743   -0.43178467454997   -0.33348362390652
H           1.57424986866838    0.08245792833299   -1.67076875076949
O          -0.40935085538193    0.45849838848082    2.17133791028234
H           0.53932080965023    0.64916200460455    2.29899671075766
H          -0.44738955485041   -0.42089301828408    1.77056301794585
O          -0.81287173559185    1.64183910779507   -0.10453151455817
H           0.08458240226444    1.46402799508263   -0.44573522599607
H          -1.58231434797373    0.63170263579634   -0.68388293460247
H          -0.77995427391443    1.34308207584162    0.85402337064903
