    19
        -40.91832159
S          -0.13536338623893   -1.19812117297633   -0.69978280695189
O           0.86609490792332   -0.43378826317505   -1.38279380994740
O          -0.56165004795001   -2.43107866555458   -1.27479679714933
O           0.30508013892752   -1.45370610396968    0.75137592555116
O          -1.37967630071539   -0.25919834428678   -0.53128635364193
H          -2.05169954380656   -0.83676720809767   -0.09195026616611
O          -2.53224533942255   -2.32537832567859    0.54303023593227
H          -2.08169713542945   -2.51184458163582    1.37127764147755
H          -2.02067652439630   -2.77200231583382   -0.15214903705095
O           0.91330464174407    2.49936398804953    1.11280199463837
H           0.51804165758669    2.46127040096096    0.20997219058269
H           1.42076510471690    3.31173433427975    1.15360446217767
O          -0.02853560695739    2.12224524533397   -1.35406615637612
H           0.37236016552906    1.25138644720075   -1.52512510532329
H          -0.97392878221859    1.95756324063004   -1.31399194768680
O           2.17849406672402    0.18786304491407    0.98899056550786
H           2.36180864325101    0.18044194524618    0.04153555241248
H           1.73951685195466    1.05900624216824    1.17394790772492
H           1.09000647878260   -0.80898989757993    0.97940579428546
