    19
        -40.92453617
S           1.45833725393441    0.44202933960213   -0.00541531947763
O           0.79453211067628    1.17357769732970    1.06715942863071
O           1.43266033375283   -0.99360834116092    0.25387556726035
O           0.93622282637847    0.78068191680488   -1.31266111367144
O           2.97561262952279    0.88110358326597   -0.00240138719169
H           3.30941742996135    0.60825989331243    0.84729037248462
O          -0.38309382456730   -1.40608392948332   -1.78173012665624
H           0.19419187274032   -2.00771562493713   -1.29679626602564
H           0.13883326314556   -0.56729907299137   -1.82184823242273
O          -1.35548093563226    1.82752168819732   -0.24027338464561
H          -0.95708033150214    1.95723597153790   -1.10872246238296
H          -0.57503934246362    1.74016731226859    0.36239053006530
O          -2.09056703822153   -0.58025781194541   -0.12143681237125
H          -1.50022893623451   -0.99874113483491   -0.87746341391447
H          -1.93216376172128    0.45224364747392   -0.19536805804301
O          -0.60426238367780   -1.05741186142589    1.85622813578355
H          -1.60582996793765   -0.84982499932191    0.76465226585986
H           0.22293060189139   -1.19658995404263    1.32857882864782
H          -0.45899180006894   -0.20528830965339    2.28394143809434
