    19
        -40.92045303
S           0.56606694098537   -0.00685996676820    1.49577344582429
O          -0.37326098213097   -1.10395170165495    1.63250870878175
O           1.53120723601088   -0.24647426057104    0.42640830125950
O          -0.08260427722659    1.28416329406183    1.33819146632214
O           1.37666259454532    0.04651814261995    2.85483157138045
H           1.29651626299138   -0.84175307505932    3.18948243740247
O           0.58216735875891   -1.75676811208756   -1.43528532384702
H           0.97779366944266   -1.29986835272433   -0.64472221435120
H           1.30927863856176   -1.97570317380631   -2.02118322939063
O          -2.27232351925022    0.04042895944211    0.29910998404020
H          -2.09550534785038    0.89854130116945    0.70625393040074
H          -1.69369893158848   -0.57444847081640    0.81871963869293
O          -1.03839416197858    0.13678232528380   -1.88148976674093
H          -0.45398154749606   -0.70731355946768   -1.82796859901263
H          -1.66913081408043    0.07886573830537   -1.03326442460981
O           0.61995732938430    1.85587404256569   -1.07820619363576
H           1.46678937414381    1.39500918600856   -1.04637994438681
H          -0.38076968364755    0.92539663012984   -1.66428759477576
H           0.33322987068656    1.85156106316694   -0.12849218394614
