    19
        -40.92174074
S          -0.22171310317365    0.75194535780238    0.43560357790302
O           0.75732586541017    0.32603634776963    1.41335648316336
O           0.42248374530226    0.86479970504696   -0.93396562996036
O          -1.39763052721081   -0.06553036248150    0.37415355689988
O          -0.63931261733862    2.20337640591303    0.75642977804809
H           0.18824755177664    2.66286295543855    1.05382076848432
O          -2.08821029981268   -1.44510525943406   -1.83144943808763
H          -2.65081452745437   -0.89776082201633   -2.38176932985858
H          -1.99983814069292   -0.98037913802807   -0.97769361620245
O           1.69546746835404    2.78104264583312    1.73285389722317
H           1.70957456556730    1.80603427070729    1.72918062669953
H           1.73127050958527    3.05762288590930    2.65206432201733
O           0.57604536696849   -2.25271998616992    0.61243992434443
H          -0.34811260603129   -2.42776485081057    0.80844842336982
H           0.78776047853887   -1.41595311860344    1.05824760312507
O           0.56984595853800   -1.40292535507278   -1.90380760764507
H           0.54741367296689   -0.09880129840445   -1.42195461367837
H           0.74222915747121   -1.90636297625649   -1.07339816963523
H          -0.38203251868412   -1.56041739723645   -2.10256052608683
