    19
        -40.91892627
S          -0.25512957523401    1.38929939555719    0.25269363857385
O          -0.84412933757410    1.92570911833183   -0.95538815967613
O          -1.11457461099990    0.35093937028706    0.85194812801790
O           1.09907415963382    0.91710608846050    0.10448544477304
O          -0.21597729774211    2.56267383307140    1.31191598851921
H          -1.05124721799572    3.00849966217084    1.20567930704547
O           1.08896900260436   -0.57154970166098    2.35731023049494
H           1.24657307150119    0.17222432985428    1.75189680834781
H           0.14025947954689   -0.56157311118840    2.51434749076728
O          -0.75368502623616   -0.09106759264416   -2.58999314903010
H          -0.73452598231585    0.74942705912928   -2.06427128883727
H          -1.50571499742600   -0.02188389615156   -3.18222720788170
O           1.66230436300096   -1.77466686575515    0.04155795286117
H           1.60329319565497   -1.64785645677816    1.01558627832196
H           1.90114402188106   -0.89167445721181   -0.28227279499356
O          -0.75725399786516   -1.64364805099910   -0.57880551438519
H          -0.77223056291330   -1.16689006819670   -1.48468349944494
H           0.26814872649360   -1.83503109936732   -0.35933941763170
H          -1.00529743405335   -0.87003757699603    0.08955974407327
