    19
        -40.90880550
S          -0.61509181843392   -1.44902430447037   -1.40535969007862
O          -1.24352818914846   -2.34887290730104   -0.49449075348774
O          -1.50202658326974   -0.23587522297613   -1.64714615415065
O           0.71933200746914   -1.02187742212354   -1.09608576084789
O          -0.55693153539519   -2.15520994220377   -2.81663025374610
H          -1.33322073805598   -2.70580972722669   -2.90139452217293
O          -0.04716309010996   -0.75290224945746    1.47664010620054
H           0.46241402556521   -0.86299555140700    0.65774047167768
H          -0.70928613494958   -1.45011918009541    1.43734069519817
O           1.78358921073382    1.11091228943521    2.60377945080366
H           1.30009062237033    0.30129129690595    2.38657075992393
H           1.88547823828593    1.12558942670158    3.55642723669760
O          -0.26510653858964    2.00448064524564    0.98462335375155
H           0.56443395346272    2.09692358240621    1.48009271609391
H          -0.56887699841665    1.11123928629876    1.20640229899499
O           0.13087430793846    1.62351352831536   -1.56983206698721
H          -0.88405189640710    0.63145492013818   -1.69440284803371
H          -0.02146335120075    1.93671307784377   -0.63150062279339
H           0.90053450817071    1.04056845396794   -1.53277440704774
