    19
        -40.91941587
S           0.15773016822689   -1.25647501020089   -1.00721346010714
O           1.03585018378445   -0.26989527380954   -1.64759418402930
O           0.69205508811807   -1.66842716738316    0.27821579761968
O          -1.21220877050807   -0.80077724842746   -0.93173525596589
O           0.16740709391078   -2.52044015504098   -1.94645786943844
H           1.08142657654301   -2.78712316882571   -1.93714429680039
O          -1.15460831766089   -0.43358016847964    1.95797906920259
H          -1.91533266821047   -0.10859135292307    1.47210173473530
H          -0.73707719378456   -1.09610521592415    1.38661625533253
O          -1.50163936074662    1.73233474976076   -0.45265349567149
H          -1.90668505899644    2.15856066766979   -1.21021597875787
H          -1.49578707854507    0.75957904237025   -0.64910426824422
O           1.38410328333080    0.40126887553970    1.81332535306791
H           1.42551724984673   -0.45948634306684    1.34518907949031
H           0.50773688158569    0.36501710871022    2.24397133736426
O           1.03940939969594    1.76891715161341   -0.24076024516847
H           0.03351951924875    1.94092343205460   -0.26006767378824
H           1.25195744460724    1.30565120131954    0.70062374173835
H           1.14662557140791    0.96864886627998   -0.91507565235232
