    19
        -40.92135412
S           0.66304877224564   -1.09299000092603   -0.89519701703731
O          -0.33948846467023   -1.36727495739465    0.12216909706414
O           0.16418597140651   -0.28106184594543   -1.98337765153391
O           1.88303303771795   -0.53611017340614   -0.30940559940815
O           1.06115332436668   -2.49452303746402   -1.50131687838338
H           1.63270623461294   -2.25808154897592   -2.22532133324937
O           0.02770983793048   -0.17699569078069    2.45572266057427
H           0.58563417042836   -0.72119227970415    3.01448184237762
H          -0.20206650074098   -0.72426817966459    1.67060253063863
O          -0.54138256528120    1.93783083577330   -0.78232560329284
H          -0.24202479963400    1.25278680311494   -1.42581896483821
H          -1.38646983437058    1.56308033405380   -0.43637472928124
O          -2.46944800121687    0.26009381681208   -0.10992695132630
H          -3.00228909259469   -0.00866139550610   -0.86035821510289
H          -1.79459438899075   -0.43639924685116    0.00916940611922
O           1.19059867942392    1.50812312614342    0.93240821980494
H           0.42030126780091    1.83408170331366    0.22881640615663
H           0.71202363390350    1.01430255942356    1.68304346916285
H           1.63736870764503    0.72725918838743    0.41300930148679
