    19
        -40.91483126
S           0.06938909789308    0.36954077990200    1.43463713724171
O          -1.08543164480408    1.33059060399757    1.67844637136490
O          -0.43250162912539   -0.94133890346685    1.11409139648538
O           1.01612289552016    0.92725460093126    0.52925680565700
O           0.73502200085822    0.27697863136880    2.85094981911509
H           0.14391118388062   -0.21188729801891    3.42043121343654
O           1.32994298995855   -0.33635474206012   -1.93720057100280
H           1.45368926715846   -1.24086749367028   -1.59899540917739
H           1.55241119322244    0.23662466132287   -1.19173494326206
O           1.09684108252873   -2.62102763825628   -0.42841535682146
H           0.57355027322141   -2.10324392406785    0.20507619277163
H           0.53084348818241   -3.33266449654357   -0.73402052059810
O          -1.25428636558161   -0.05392011325790   -1.40358227130813
H          -0.35866478046865   -0.16770658298853   -1.80948227558004
H          -1.22454663873023   -0.55527206695973   -0.57977602040419
O          -1.23054820945869    2.38640502352211   -0.55697020191040
H          -1.22970373514665    1.87657689858551    0.78030373289741
H          -0.32097544649253    2.64630546197600   -0.73552734454130
H          -1.36506502415700    1.51400661766763   -1.03748776442183
