    19
        -40.91965194
S           0.64697130425194   -0.65966124647256   -1.23109937837558
O          -0.76853198272908   -0.30868564913943   -1.08224711111099
O           1.45145491310833    0.13883229107002   -0.29263858505858
O           0.90270078675281   -2.06384874369289   -1.16688824935511
O           1.08194531923664   -0.15225209194681   -2.66425637597301
H           1.24919053931090    0.78071541886851   -2.56117819732574
O          -1.22567324650928    2.22529088903899   -0.78012047466616
H          -2.16621391176253    2.41274026308382   -0.78692967722754
H          -1.12482576278025    1.27620984703214   -1.04776774909276
O           0.84648856606960   -2.13203243299077    1.48638202558142
H           0.88439807411381   -2.30594778121728    0.52484907162200
H           1.67301002845101   -1.69369063065125    1.70036856578901
O          -1.29151686900984   -0.59781259366540    1.50227745229713
H          -0.61106212801500   -1.28082425625009    1.71979112221891
H          -1.37955678921868   -0.65959481975004    0.52765549438515
O           0.07602110616255    1.45620400968924    1.29495813408613
H           0.77745002008327    0.95960442605845    0.68906394399175
H          -0.45220154488215    1.98454289408252    0.61393247696319
H          -0.57004841263211    0.62021019684885    1.55384749125076
