    19
        -40.92136398
S           1.15173689519682   -0.09155466884581    0.76757855456760
O           2.36757340106139    0.58477172141469    0.38884096294243
O           0.03438469696905    0.79016046888375    1.02057421315690
O           0.77883777984389   -1.14902947669255   -0.18844060095992
O           1.44664953253978   -0.85309902369543    2.12924887085790
H           2.37935429458316   -1.04526173127855    2.09216609122387
O           1.02580273319369    2.03589599410884   -1.35364335554036
H           0.55619059831978    2.62979854848297   -0.76132517003590
H           1.68135634401080    1.57016555017092   -0.78625781161123
O          -2.21460771299807    0.37498012288263   -0.25712277056492
H          -1.53766962747623    0.73792200281264    0.35906391606265
H          -2.33336742045650   -0.54252702204102    0.07435847755839
O          -1.55441841729847   -1.94557576069698    0.87338880710401
H          -0.66194478159726   -1.82770011336402    0.49651569683286
H          -1.44578745784800   -1.91963090260859    1.82553779716493
O          -0.47138894604962    0.07018373955172   -1.99058092598523
H          -1.35463607807241    0.22643308520104   -1.36186279019661
H           0.08010271149014    0.93022237251756   -1.92144420685283
H           0.07183143404503   -0.57615488790771   -1.40659577627800
