    19
        -40.91103820
S          -0.04658881348009   -1.52850818224382    0.04491969495055
O           1.19313654874658   -1.89323971257980    0.70051645653210
O          -0.85791859534670   -0.66557740607302    0.93009975172311
O           0.13492429757642   -0.92808526421643   -1.25200883723935
O          -0.88908874531621   -2.83817157769713   -0.15182573459309
H          -0.99031130616832   -3.18721142567220    0.72883368820585
O          -2.86690690723240    0.55042247465008   -0.61753927530952
H          -2.28582916237214    1.04847833832403   -1.19750241588128
H          -2.29724050827673    0.02436772989968   -0.04241915791929
O          -0.16379708563271    1.61040948972691   -1.59470314021131
H           0.50378734771793    1.92908944515120   -2.20540334501900
H          -0.10400062954347    0.61777470030850   -1.60510541611620
O           2.44981685752325    0.34769680600815    0.92392568332729
H           2.07393102986074   -0.56522073894260    0.78802745544197
H           2.98410916965324    0.30076111182997    1.72011455648795
O           0.23014049534660    1.54890472632417    0.90995837773735
H          -0.33119041176825    0.65317198879446    1.03416569676274
H           1.20225686847248    1.20110509647972    0.96581610638633
H           0.06076956033392    1.77383240993943   -0.07987016523885
