    19
        -40.92079069
S           1.27199711503525    0.62385456697676    0.44720012233338
O           1.72457848767373    1.54864166701958   -0.55982378253844
O          -0.06753912595729    0.89493361071054    0.95047109764269
O           1.40366978774255   -0.77269682858006    0.02764071235716
O           2.22384394222969    0.79389528273390    1.70027910195353
H           3.09623999577090    0.76110061071831    1.32048737847185
O           0.23019290587857    0.88133782182820   -2.63572404766319
H           0.22645002334960    1.62158974642748   -3.24559051494075
H           0.86797981897277    1.11486679996988   -1.92694506703496
O          -1.18939131835827   -1.06377302633565    2.28607667471316
H          -2.05347908726642   -0.76847254517561    2.58011964440078
H          -0.70998138356695   -0.26083467389959    1.97223613137322
O          -1.71274751023710    0.15017696862474   -1.01072531297620
H          -1.30621504743278    0.65232516424751   -0.27566582228164
H          -1.14927871250243    0.37406443004057   -1.78811359817565
O          -0.76672364318177   -1.95767816041498   -0.07461300384339
H          -1.28210097385744   -1.17398555734266   -0.58122966414208
H           0.21956565789476   -1.58499107049714   -0.08480526858646
H          -1.02706093230936   -1.83435480703762    0.89872519896728
