    19
        -40.92045289
S          -0.28083766570030    0.69346185254140   -1.41353354858864
O          -0.89889921341494   -0.58866173347371   -1.69399168294475
O          -0.86564292559944    1.33404648438823   -0.23861383006347
O           1.16656629084010    0.61882115472153   -1.30525923753653
O          -0.60316011367843    1.61647879668683   -2.65888052012285
H          -1.39528118597249    1.22755239388705   -3.01745330099910
O           0.96223241653849   -1.99848809045083   -0.57922440480553
H           0.14904810825351   -1.66514824209871   -1.03797792394747
H           1.65923337447442   -1.43451943476757   -0.93924669807557
O          -1.79880725284616   -0.37551432532451    1.45063989863912
H          -2.28127200878946    0.11793472367246    2.11665262224193
H          -1.56722925996168    0.26802021448788    0.72772180216081
O           0.60519422181224   -1.11528531615988    1.74014022983990
H          -0.40568878818001   -0.92792983962116    1.73839103071367
H           0.78738240613382   -1.60346940326581    0.81861370705977
O           1.46716521112379    1.18890484035145    1.19363602271237
H           0.69822560822480    1.76803696136000    1.25599123280480
H           1.04741649470141   -0.17027636490673    1.62662233077370
H           1.55435429205844    1.04603532794354    0.21577228011734
