    19
        -40.92044602
S          -1.43686247346065   -0.21856780929835    0.66083631083013
O          -1.86932990842030   -0.28457257813747   -0.72148483544478
O          -0.63511948110778   -1.38329948040091    1.02902902106605
O          -0.75482940324264    1.02021038774636    0.99329031066387
O          -2.74748408621303   -0.25027866615519    1.54765592053823
H          -3.30896650598120   -0.87415555067371    1.09741333898734
O           0.18005749457190   -1.61716297023971   -1.55674977956603
H           0.16693066462707   -2.17819512715720   -0.76976262049894
H          -0.65758742247312   -1.09366391056578   -1.46555240101398
O           1.91124933847714    0.10577631486668   -0.99382710439957
H           1.39258968788443    0.98176949583156   -1.12906936307734
H           1.25678853442443   -0.64880680212784   -1.34365306903713
O           0.38989269628522    2.13197999181272   -1.04076162938754
H           0.65469567966040    3.01564709138619   -0.77843346459911
H          -0.18794806184356    1.77848631287992   -0.31503258285831
O           1.62566460507493   -0.23043059761678    1.48596266488516
H           1.26660278249911    0.59875519229443    1.82230371920529
H           0.82305713031252   -0.81390532054667    1.43133987522334
H           1.93059873894755   -0.03958596388428    0.04649568848052
