    19
        -40.91893396
S           1.41478927728720   -0.59027130726680    0.81836563292290
O           0.96778680438065   -1.07825985980031    2.09819217420195
O           0.83816222851597   -1.35530355272340   -0.29778944534266
O           1.25258901589303    0.83538373028823    0.61127563071938
O           2.97755415471610   -0.86299004820742    0.75426952304060
H           3.07638689266181   -1.66612622382734    1.25663407177553
O          -1.22172750202430    0.36284215373304    1.78208922037038
H          -0.52172253295288   -0.27030311077702    2.04075780666980
H          -0.74610434171934    1.18053121945752    1.60710834756571
O           0.39123687789001    1.97227304620702   -1.55077947787864
H           1.14801235969444    2.22714204108972   -2.08173678866194
H           0.75347989520660    1.65473341040450   -0.68336127941712
O          -2.63486805242431   -0.36364180643173   -0.30569164246452
H          -2.94095232341185   -1.25328528624901   -0.11851483422698
H          -2.18188087094287   -0.04774873070805    0.52166348590213
O          -0.68454511663946   -0.29775364208825   -1.91425879468049
H           0.00729799783628   -0.80815909708932   -1.27572745292710
H          -1.55685844071969   -0.30627418505486   -1.35563003556808
H          -0.33863632323605    0.66721122899492   -1.90686615192306
