    19
        -40.92045300
S           0.01434860758761    0.09007498634616    1.59679841782405
O           1.12191128440035    0.72985825216043    0.89209812556588
O          -1.24182284561822    0.77898264280670    1.36908071157378
O          -0.05008817661614   -1.33005683178897    1.29462879722641
O           0.30900180302472    0.21936905854398    3.14714602672885
H          -0.18152438253603    0.99702769878394    3.39628809827756
O          -0.25975525198624   -0.34668704501752   -2.10953875672035
H          -0.06076705819008    0.64112932680586   -1.90623046108367
H          -1.10720221524382   -0.57542052210206   -1.51771580135334
O          -2.07899617496992   -0.84930274178611   -0.45893547369999
H          -1.75239167327208   -1.62098528267260    0.02191079077046
H          -1.95396126202137   -0.11297296222343    0.19306962303169
O           0.35378716736890    1.95246433152601   -1.24407028004333
H           0.60851248672612    1.60314033613163   -0.34781829797616
H           1.10371576618372    2.45428847957424   -1.56915791049807
O           1.54525789573528   -1.43812088271479   -0.73085344830235
H           2.11700815492721   -0.71569998309783   -0.44496264009031
H           0.98655856736416   -1.60527199469883    0.07170960668716
H           0.52640730723566   -0.87181686655017   -1.65344710790351
