    19
        -40.92044769
S          -1.34765297411772   -0.64975163454567    0.55813452657738
O          -1.75329615128625    0.35918990946949   -0.41730892261897
O          -0.83305814445565   -1.84144635584230   -0.08824623931638
O          -0.44067087906258   -0.09321362530196    1.54745458988010
O          -2.64585797594943   -1.09198519700764    1.34844744250573
H          -3.03532351345433   -1.75408394910724    0.78515142542713
O           0.09040615965320   -0.61320486109932   -2.16560209336440
H          -0.69348872828421   -0.04947676464935   -2.21077342889168
H          -0.15308369899997   -1.26968838227949   -1.46314450266846
O           2.04012216231281   -0.65370526663725    1.08454082448382
H           1.08062778589512   -0.58877031952831    1.33110278694175
H           2.54318900411774   -0.40926921969110    1.86365857777919
O           1.75008547861714    0.82295739082997   -0.95474646471437
H           2.02350641622548    0.21829545030710   -0.17113496440617
H           1.14353449563213    0.20869829898733   -1.56693220747692
O          -0.04712829900630    2.21276381805315    0.13206991095032
H          -0.81485016449642    1.64772112102344   -0.14887695884261
H           0.01863034929407    2.03185107162399    1.07685108478280
H           1.07430866747736    1.51311850534826   -0.54064538708054
