    19
        -40.92071442
S          -0.57559253161921    1.08527213870753    0.82877170929390
O          -0.41953115308984    1.23368746526148   -0.59982060205888
O          -1.94571124543681    0.92546268630278    1.25868072244859
O           0.28419233199328   -0.00404387347642    1.33269128082790
O          -0.03491425247945    2.40520257632677    1.50840302423395
H          -0.52181699239302    2.45649202739085    2.32607420274443
O           1.12739980921813   -0.46616467610961   -1.87346115720770
H           0.59886995240863    0.33077326768323   -1.63715850272768
H           1.95011591426836   -0.35956230679393   -1.35064698082477
O           2.72450866445980   -0.06755158795649    0.22100505310565
H           3.31026703761341   -0.59024975311058    0.77059418272541
H           1.90213113785527    0.06316322579502    0.73375069889344
O          -2.48771733275267   -0.73142953822865   -0.69449959224571
H          -2.47389790293664   -0.14174435794193    0.09609678156889
H          -2.40145124484290   -0.14002461174046   -1.44800559393077
O          -0.22927856801571   -1.83276975023449   -0.31867486143162
H          -1.19855397035858   -1.55756674342958   -0.53239149399319
H           0.38834096592049   -1.37462661577786   -1.10367457536021
H           0.00263939029265   -1.23431956263548    0.48226571414491
