    19
        -40.91440016
S           1.46243726916561   -0.45473160643559   -0.69883867914910
O           1.30048880435814    0.93012547181045   -0.27618327548614
O           2.14488048788500   -1.30973248984460    0.22701160502202
O           0.16313873107267   -0.99443546857348   -1.14363033613149
O           2.35616786683395   -0.38543267030304   -2.01067351890311
H           2.81745752591292   -1.21841904821292   -2.06393564359535
O          -2.50274097334412    1.14223109542222    0.36711482587491
H          -2.10377235655958    0.31765337145142    0.80009378536022
H          -3.40540394758040    0.91904275455157    0.13129642541854
O           0.93888118301454   -0.15762197050851    2.33737677197502
H           1.51396586939472   -0.71911100335589    1.79028428491295
H           1.08726278445407    0.73524524617631    2.01255574045347
O          -1.31675973694417   -0.98890667446330    1.16401188604409
H          -0.84870681198813   -1.26277872632689    0.35829297281826
H          -0.60688336711648   -0.74810536867980    1.79941067425961
O          -0.83495565473517    1.22832222503577   -1.48822613937134
H          -0.60994637502593    0.21376394266372   -1.55346224446604
H          -1.59685213384816    1.29075943834557   -0.74269955317996
H           0.04134082503962    1.46213148126527   -1.00979957185486
