    19
        -40.92161562
S           0.91245228888854   -0.42365393241735    0.35932670454632
O           1.22028650446163    0.92855316291603    0.00408300158611
O           0.33832831274311   -0.59382174490985    1.67407073976805
O          -0.02043896702976   -1.06219998229092   -0.66955652988796
O           2.18627481652527   -1.28584860715868    0.24020774896039
H           1.90313461779138   -2.18124496064642    0.55547215649023
O           0.06726565217554    2.17613067467684   -2.09314854883255
H           0.62627476840204    1.77207803785534   -1.40448427830416
H           0.37370700298957    3.07700413138295   -2.20699305274687
O           0.73441391228696   -3.21827001903283    1.19583934986048
H           0.08225533019461   -3.40257683897709    0.51387204464120
H           0.38333280779371   -2.48189058210098    1.72207244889252
O          -1.33655574875839    1.49311586405402    1.29213904599729
H          -0.85495015866427    0.73318730862589    1.65991212495736
H          -0.67908993253639    2.18623837994622    1.19192768594544
O          -1.83698688515265    0.54973603863121   -1.14737631028484
H          -1.35707732026142    1.19622981734926   -1.70323919153633
H          -0.85089513791422   -0.42097418028838   -0.93328258453636
H          -1.89173185391271    0.95820743243869   -0.25084256551999
