    19
        -40.91965228
S           1.46725800574142    0.45526971548212   -0.09439203951227
O           0.61034355708122    0.89634312494858    1.01748750561565
O           0.89631147788583   -0.74955912233394   -0.70360216411192
O           1.77521675387914    1.48550492852299   -1.03534769290013
O           2.81798796309143    0.00734069411946    0.59523648128883
H           2.55975492890635   -0.36645077765293    1.43347027249898
O          -0.05772862541404   -2.46736977629872    0.98828813650967
H          -0.32828784609221   -3.27516851693521    0.54782373560788
H           0.42845910539596   -1.92755189020742    0.31397004287237
O          -1.60894187589922   -0.11094917281508   -1.29467052808449
H          -0.69792503840308   -0.46317155766602   -1.38232713546653
H          -1.49531436458826    0.86422231538048   -1.40868540766344
O          -0.72582373069770    2.36420820549237   -1.16377700731583
H          -0.81648946725226    2.79428247726623   -0.31059514294650
H           0.22856710806931    2.17417042389583   -1.26079025131332
O          -1.51999659780519   -0.36468799875495    1.16658822474796
H          -0.66500017144500    0.24366909040206    1.22499928517337
H          -1.74298981867437   -0.26948403057679    0.10541025009552
H          -1.12540134375985   -1.29061813227128    1.26091343490452
