    19
        -40.92453850
S          -0.07343588352043   -1.38899644587355   -0.62222842919575
O           0.20722536507188   -1.55677505557888    0.79952867783013
O          -1.37461259911245   -0.76151218523939   -0.82241505438633
O           0.98992665476847   -0.69743098581681   -1.32020760556380
O          -0.15360811621426   -2.83586811954258   -1.25077250413396
H          -0.85941459200120   -3.27002113020511   -0.78038008876623
O           0.20989417839095    2.00911471348742    0.80115708186912
H           1.09797110877990    1.45648578978789    0.83451334402692
H          -0.48881190954616    1.40569611841338    1.29235051380333
O          -1.37201328220287    0.27883819676447    1.72300097436370
H          -2.07203791343279    0.18992625805705    1.06560453704458
H          -0.78479852890126   -0.49928245441844    1.54407411880182
O           2.14953489638622    0.40073429462389    0.72815816549698
H           1.91052844618134   -0.01341699497339   -0.13707149028352
H           1.95090138128157   -0.29027576750208    1.37117039930846
O          -0.51516630530533    1.57479960359488   -1.57354648500308
H          -1.00131724574741    0.73148089494853   -1.39406803749995
H          -0.08833422634522    1.98062211717796   -0.20196471898483
H           0.26756856152847    1.28588115220187   -2.05690339882369
