    19
        -40.92246920
S           0.74303898118832    0.13398360726139    0.75776904818817
O           0.73919396321356   -1.28297664584649    1.03821975679471
O           0.89342717390057    0.34208111172298   -0.74697324692154
O          -0.38741708655770    0.85649178761354    1.25746162513920
O           2.03706390781422    0.76461630401120    1.31689104546074
H           2.75598852666716    0.17553516054815    0.97594698374499
O          -1.81938214712292   -1.58482066378103    0.23112521899749
H          -0.91919886169934   -1.69416839211085    0.58267609373049
H          -2.30179230644506   -1.08343013782605    0.89328440329381
O          -2.20620597504106    2.07532967535457   -0.30326809822426
H          -1.62871966858198    1.71967998718572    0.39867814864487
H          -1.96903155688044    2.99805099172529   -0.40956272726951
O           3.26706553403191   -1.18956385051421    0.12121805545967
H           2.47864324186404   -1.66246639435812    0.43389817869031
H           3.13753408967079   -1.03489989076508   -0.81873953737633
O          -1.32400372882303    0.06104433913609   -1.78357296220634
H          -1.79025535889706    0.86109807329654   -1.44294208766318
H          -0.05833211152897    0.22509462149202   -1.28549199681967
H          -1.64761660681317   -0.68067969413499   -1.21661790168262
