    19
        -40.92079115
S          -1.06465294445302   -0.29569624774639   -0.99370423770718
O           0.36960635944475   -0.48958014076153   -1.15646861658723
O          -1.46930935519538   -0.50325465343683    0.39811806567065
O          -1.55880940159166    0.94453938374130   -1.53392770718647
O          -1.73460522898538   -1.46733152241625   -1.82029736647322
H          -2.66005305357694   -1.24407042908701   -1.80701709910630
O          -0.58837323113443    2.72434198661720    0.16146596752939
H          -0.58987074381848    3.57819368484588   -0.27534650313452
H          -1.04348157894538    2.10448625557882   -0.44900965884377
O           1.49625488352053    1.17181756207295    0.59740123952073
H           0.83558107902397    1.90362004705323    0.57609777799710
H           1.30880389393290    0.66440243918233   -0.21826113802541
O           1.43138748085489   -2.36990481081536    0.33240197421607
H           2.36808571874521   -2.41791893819459    0.13090766489159
H           1.02084240836775   -1.81302404765070   -0.37066494897205
O           0.45428209659307   -0.64367412122620    1.94988192104776
H          -0.45355267756653   -0.59606868377378    1.41686073226267
H           0.90642508771865   -1.44533891115065    1.52177290015576
H           0.97143920706598    0.19446113716663    1.53978903274392
