    19
        -40.91908966
S           0.25124521527167    1.11329621345757    0.38995390953532
O           0.00215590236920    1.33163190929807   -1.02209945942255
O          -0.69202626352959    0.07420235561548    0.90084760564402
O           1.61593458509283    0.74723854156743    0.67919361437896
O          -0.07707388122574    2.41362671798624    1.17283348631724
H          -1.05034993029095    2.49426323061517    1.09390324481578
O          -2.65078969219394    1.83857142100755    1.06963189999175
H          -2.16289715564274    0.99799357331317    0.97827983936996
H          -3.08631300470620    1.81350000747804    1.92491791281161
O           2.37960729754719   -1.72217257851057    0.51035616515733
H           3.02577328919692   -1.73222282166327   -0.19962782875863
H           2.20199872145947   -0.76420515737887    0.70257128129856
O           0.13856374865957   -0.83306784277061   -2.38879020354363
H          -0.60114289114876   -0.81645580582298   -2.99975838964329
H           0.15119258944817    0.06759656878829   -1.95168543623152
O          -0.02530710402183   -2.04375996805268   -0.18165941068514
H           0.96644605634593   -2.08884526032944    0.11997237384720
H          -0.39147663407379   -1.19960763543143    0.35634410287753
H           0.00445918145047   -1.69158344916908   -1.15518468773463
