    19
        -40.91498383
S           1.41222977470357    0.44229881735797    0.92808636759611
O           2.23297380978115    1.14481230624742   -0.00416350326754
O           0.28452357393579    1.32061863077977    1.42961112559861
O           0.91067067063249   -0.84436085004066    0.53942768480795
O           2.28634427916461    0.19041462080528    2.22288012936444
H           2.85367961792270    0.94963233333842    2.34237015410876
O          -0.24630654981043   -1.65099692443320   -1.77018400470221
H           0.23006073712275   -1.41664431664973   -0.95301264715430
H           0.00744168788954   -2.54899512781572   -1.98763642777725
O          -2.27961436075887    0.01793083363837   -0.84922993059485
H          -1.70962498816662    0.76782819245431   -1.08887778738116
H          -1.86175140452043   -0.73658142411974   -1.29261753167792
O           0.03044369233173    1.26245638742545   -1.62318166425702
H           0.17165048674130    0.47851987633268   -2.16545165949936
H           0.86845002737510    1.44318706561345   -1.18029133465054
O          -1.57776811999484   -0.28947823175614    1.61990433113354
H          -1.02734409140831   -1.07644016285704    1.53136240834151
H          -0.57935395312911    0.70508053348680    1.58597605750782
H          -2.00670485979995   -0.15928255986419    0.71502823251680
