    19
        -40.91814273
S           1.04684742808628    0.61098642745484    1.28203980177159
O           1.32882154906961    1.06275371069924   -0.08680105288715
O           0.42211061055488    1.61778156564335    2.08981749047616
O           0.36551542952001   -0.67937535784133    1.26077428466199
O           2.46845671540541    0.31752271429588    1.93280146018406
H           2.67615559347358    1.13523953741847    2.37473800590893
O          -2.06042246326679    0.55876628154465   -1.64704166857894
H          -2.05641387972391    0.73678634991643   -0.66872001061958
H          -2.71704399183350   -0.12547913021043   -1.79233209003534
O           0.47093707129678   -2.30635737396852   -0.75237474572730
H           1.29941162452424   -2.78785592681919   -0.71562330346841
H           0.40672794794422   -1.79910102864549    0.09855001285681
O          -1.87793319018857    0.73202157628686    0.96240665869134
H          -1.29392898399254   -0.01645663330394    1.16891201048806
H          -1.42923616016509    1.47496061801434    1.38853949516042
O           0.35771287779161   -0.10631700313510   -2.02019502764563
H          -0.63284256444078    0.18577773711832   -1.97499422641503
H           0.82762486606898    0.45402390892269   -1.23527375390372
H           0.39749951984968   -1.06567796346516   -1.66522333099472
