    19
        -40.91739477
S           0.94127096124589   -0.09761802106330   -0.85449635344806
O           0.46953930619808    1.21266805767264   -0.48439923542555
O           1.02503144212789   -1.00638130302005    0.25812524322641
O           0.10653062261855   -0.67763446578608   -1.98475537621777
O           2.32520896975510    0.01558471793884   -1.54533418740266
H           2.89673616794942    0.41183271655083   -0.85248130639534
O           2.91666741599656    1.03605999143708    0.79410124299377
H           2.63772186456427    0.28156458105256    1.32306109451559
H           2.14375511746162    1.60828996060344    0.71256889539592
O          -2.01982117477830    0.94589737381348    0.57606045754524
H          -1.75187041071402    0.40229426040688    1.34475701484860
H          -1.18842768717316    1.32093482614732    0.24080182820767
O          -0.81967373253624   -0.83016012379378    2.21683497900963
H          -1.21561128000230   -1.69649614261090    2.32843432091399
H          -0.09484374665717   -0.94348533312928    1.57397235272821
O          -2.30997905490788   -0.75510424950974   -1.32927223176209
H          -2.83754105661441   -0.35836242196239   -2.02674127977965
H          -0.90659781007013   -0.76723624634782   -1.73591531944795
H          -2.31809591444562   -0.10264817844673   -0.55532214948804
