    19
        -40.92045298
S           0.74524792409023    0.61835969926609   -1.27286988279467
O          -0.71031899598350    0.73281336818510   -1.24297465415851
O           1.37323112048322    1.43960567698513   -0.25504149800009
O           1.16392252094458   -0.77247027091986   -1.22302978658329
O           1.23184636528896    1.19736585280296   -2.66381537434387
H           1.45503886900745    2.09994615545140   -2.45623205680410
O          -1.60510731619307    1.29580614446899    1.10857081344747
H          -2.54061707532040    1.48675378758171    1.01774689665575
H          -1.23589965164151    1.22383751556291    0.18723440404989
O           1.72381679949016   -0.49283056308988    1.42877525933313
H           1.98544755678898   -1.10779787225670    0.73111406455511
H           1.67894639986052    0.37583922784841    0.95282189806347
O          -0.71090997293439   -0.97485043097407    1.78347676052157
H          -1.12734735422906   -0.04230431697870    1.66575671752864
H           0.33394636595080   -0.80512440474973    1.76058463849025
O          -1.05750059534258   -1.89321387393659   -0.53766993398744
H          -0.15879375065891   -1.65781802564152   -0.88554812632815
H          -0.91501085480373   -1.46923326619887    0.88052914336497
H          -1.62993834487671   -1.25468440229888   -0.97942927304190
