    19
        -40.91892050
S          -0.86120219807777    0.79396638659175   -0.07923016311343
O           0.41809845720499    1.09616961886177    0.72420685915959
O          -0.51730790697215    0.75749037935721   -1.47441287481745
O          -1.50453488723302   -0.37005578812399    0.45007154381603
O          -1.75261733180807    2.03058676975676    0.19407962869759
H          -1.27290127006987    2.78439696500845   -0.23120161933638
O           1.61139915474731   -2.46564385356478    0.37133884860566
H           1.74055080124906   -3.41146110424979    0.46029165906310
H           0.97060256408240   -2.34010516581674   -0.36545642312476
O           0.04973531589489    3.37346103033562   -1.12132372411175
H           0.04739985102514    2.55745225784984   -1.64655335858945
H           0.84195053119661    3.34348030647591   -0.57765813820201
O          -0.34052471259515   -2.00462845452067   -1.40494412321368
H          -1.02722883313118   -1.76993757600227   -0.76551392792451
H          -0.19377927001271   -1.18524774112398   -1.89391556563946
O           0.54616883436067   -0.90146388115977    2.22127467628896
H          -0.38472995610368   -1.11206150412317    2.07328763254042
H           1.05871796305860   -1.51698195436786    1.63867152250774
H           0.57020288314380    0.34058330873167    1.42698753735757
