    19
        -40.91346205
S           1.78110427006514    0.05318166593897    1.00869913568729
O           2.31015707259610    1.20569602834933    0.34855653911880
O           0.41547249126085    0.15976269141543    1.44266886422814
O           1.98283143405102   -1.19872122845611    0.17097539823412
O           2.66071804169392   -0.24714542244740    2.27385607628693
H           3.57226841459474   -0.11955878612765    2.01862097896590
O          -2.92881016733658    0.77909260976798   -0.70273442446992
H          -3.31286119878699    0.66650950659647   -1.57387850275555
H          -2.09377609373288    1.25354110633402   -0.82170590203145
O          -1.71651782076133   -1.38630093285464    0.47164204133313
H          -1.14296516958387   -0.96654584615908    1.12753343263770
H          -2.34142984452566   -0.69308061763694    0.18583913768869
O          -0.20823375981948    1.47294784819964   -0.82792687011593
H           0.58652295993760    1.99563568527894   -0.97141171877473
H          -0.13105125083367    1.16451485552629    0.09284247878229
O           0.07581551016532   -1.18639945603776   -1.39653124085109
H          -0.04050864755775   -0.22388678659510   -1.51356896641659
H           1.19294749564111   -1.27636506772225   -0.56488527123696
H          -0.66168372708799   -1.45287785334970   -0.76859119633450
