    19
        -40.91904992
S          -0.99609319358616    0.14457453944536    0.59293615339677
O          -0.83056475395807   -0.62989523364931   -0.72888701465263
O          -0.20363642099201   -0.45604812051220    1.61526863017945
O          -0.74249131707393    1.53587033103474    0.31453204576349
O          -2.49653230075021   -0.03589676972775    0.93207528919299
H          -2.97834058834353    0.44270555393068    0.21257449911849
O           1.90632277483873    1.33007997382322    0.91912539510936
H           1.76623973862963    0.91754284409009    1.77608228918429
H           1.02368601908075    1.61286417928290    0.63107010032499
O           2.80810194915548   -0.69863095991512   -0.59439636320758
H           2.57067211763373    0.07763096933106   -0.03875646786544
H           2.95618157778363   -0.36370896428479   -1.47992099102373
O          -2.96349196246760    1.37383478347104   -1.20832792940975
H          -2.17691092998690    1.83678968349735   -0.87822568468757
H          -2.66957377094850    0.82718541489046   -1.94226536404365
O           0.83183205679625   -2.36973640815640   -0.08976968214936
H           1.66385147910454   -1.88380317759784   -0.32500480491506
H           0.70998943883948   -2.22398325554792    0.85723527243023
H          -0.17924192374269   -1.43737538339336   -0.56534537274017
