    19
        -40.91965091
S           0.76250195548293    1.29821313541833   -0.32277475738872
O           1.41739144202945    0.19975006788898    0.40496938216138
O          -0.40589844269502    0.77975717290883   -1.04090066441191
O           0.48254942279128    2.44387769202625    0.48347154190464
O           1.80759785241467    1.72804112922196   -1.42858569215777
H           2.21732119804664    0.91726704464972   -1.71823697860872
O          -1.84711545604062   -0.48149770210946    0.79437502520160
H          -1.61127095223912    0.10513730488416    0.04487837881374
H          -1.56061283853982    0.02911688934589    1.59070731066721
O          -0.49887110382588    1.01059150437020    2.49129933138906
H           0.30123140419543    0.61566866110697    2.84503810552205
H          -0.19589724081856    1.69529720337035    1.86236362195110
O          -0.04098369088114   -1.52099322852211   -2.17781619090733
H          -0.18755715736061   -0.58048980182029   -1.90081278489447
H          -0.79827592878193   -1.76981007943418   -2.71109557825435
O           0.12376890119405   -1.91451846082467    0.35461881405718
H          -0.81682163092457   -1.43777749574196    0.62303672621585
H           0.07643272244926   -2.02326015700331   -0.64908679911405
H           0.77450953350184   -1.09437086973497    0.45455119785054
