    19
        -40.92045292
S           0.49578398045921   -0.38103547695454    1.47190531459311
O           0.85503085806241    1.02432642606267    1.49756630538430
O          -0.92304414440030   -0.57488696797165    1.18533439862564
O           1.32532803338016   -1.16660148574385    0.57355985700862
O           0.75645340992542   -0.92649598158897    2.93522820119865
H           0.68915386270448   -0.14340291796600    3.47353121363359
O          -0.34366327905111    0.53028735732561   -2.05856230241508
H           0.59679153700868    0.83189525459055   -1.67711483957833
H          -1.03029552557708    0.96819881114618   -1.43130652154377
O          -1.90861664959131    1.33579668961961   -0.23819301723848
H          -1.55085811230665    0.68780848589912    0.42691826871276
H          -2.85863970196033    1.20719817035388   -0.26672412690649
O           1.81602128658391    1.06833941067419   -0.90413405512025
H           1.49634380778092    1.27774277872669    0.01068192864661
H           2.24180056227269    0.20831709263107   -0.79208629702386
O          -0.42789921421484   -1.83648422357553   -1.19742648687936
H           0.34761931423672   -1.75887773250283   -0.58358360241648
H          -1.17746906415398   -1.85842794330976   -0.59062463024069
H          -0.39984095112402   -0.49369775732926   -1.83496964837758
