    19
        -40.91907731
S          -1.40383826867047   -0.74709718781330    0.50138914575802
O          -1.19533330122038    0.64055196623306    0.84565626387048
O          -0.64348622579578   -1.10611454889998   -0.71462135772599
O          -1.15043515439905   -1.67309795676307    1.58026752398060
O          -2.92707104253730   -0.90184921733928    0.09949683601533
H          -3.12662815985323   -1.82571890280308    0.22635054069722
O          -0.68809645111868    1.48287025442038   -1.60300251532625
H          -0.99238290077571    1.47131053901505   -0.67396529096609
H          -0.80702740299661    0.56449000097073   -1.87807330898787
O           1.89063407025565    1.56184400596207   -1.22961994965612
H           2.32907506763272    1.63661123760836   -2.07913282900092
H           0.91041344773797    1.67754283933500   -1.39851514640664
O           0.99041482725237   -0.30558394896424    2.23195316793204
H           0.26700359113645   -0.97166635204209    2.23523548886935
H           0.52182193810605    0.53644395471594    2.16434149726536
O           1.73952702308406   -0.71574120728489   -0.14509525641898
H           1.91195522973060    0.21438693077121   -0.57698268745814
H           1.60562298795239   -0.55730574240736    0.87431524893094
H           0.76783071438427   -0.98187666466710   -0.45999738138559
