    19
        -40.91966045
S           1.49223521672468   -0.51602785864535   -0.66255966464766
O           0.58389067392507   -1.46655903379382   -1.28507078174493
O           1.39151825792855    0.80137121050752   -1.30964264611997
O           1.32693438789358   -0.42271844123740    0.76672596480891
O           2.95612564979782   -1.02370057046233   -0.94079573756249
H           2.99028079172900   -1.07004700935677   -1.89133012774747
O          -0.20762365047240    1.48529971015926    1.96186537607480
H          -0.75767180620348    0.69019643075264    2.16809266570260
H           0.67903827794832    1.10699007709548    1.84529832257127
O          -1.78431097855548   -0.56461759712873   -0.91447817824680
H          -0.89817566569406   -0.99905174322414   -1.08316312788543
H          -2.32846230800096   -0.75493999676887   -1.68091545894296
O          -1.15274606257518   -0.97612465329650    1.83256219028038
H          -0.23344294813554   -1.12285648309080    1.55479559804805
H          -1.68371722406506   -1.06457028393292    1.03270156512011
O          -0.72573995281702    1.74508824815577   -0.46507587018910
H          -1.30648056186327    0.93859965192550   -0.64664913025096
H          -0.55391871763831    1.75427041398408    0.59594824182908
H           0.21226662981303    1.45939793951348   -0.87830919026432
