    19
        -40.91454146
S          -0.77462238971306    0.38916305134285    0.76615653376133
O          -0.92646552898858   -0.69796081447989    1.67819159632567
O           0.58524340929591    1.04764468036705    0.97242135709000
O          -0.95061454846538    0.06164469622779   -0.63305826638606
O          -1.76639206969593    1.53268781463271    1.11951146907655
H          -2.58471702737502    1.39711202000727    0.58055098480188
O           2.55806217906958   -1.31216626453087   -0.92773998063577
H           2.24234440612904   -1.51456565513934   -0.02025527516677
H           2.29111902367332   -2.05524726641414   -1.47139347192883
O           1.52178821335093   -1.80120403598777    1.50809099301330
H           0.58586225429322   -1.54744668018502    1.60265035924965
H           1.98851816271858   -1.34569442392485    2.21191577407466
O          -3.49083302353722    0.85539108694374   -0.71547036978786
H          -3.66098033084404    1.48419499127695   -1.42143755556861
H          -2.70867875484422    0.33701107528293   -0.97479202222833
O           1.44665041505471    1.04258405995368   -1.36460136283155
H           2.02286738903421    0.23946731649685   -1.30091776718724
H           0.58149666566452    0.71039197984139   -1.64628373457353
H           1.03935155508768    1.17699238879862    0.03646074894155
