    19
        -40.92453849
S          -0.89371539771208   -1.04285612463865   -0.66055395023690
O          -1.30109061766156   -0.95375821713650    0.73688755568463
O          -1.11476918351738    0.22559754518332   -1.34641361762669
O           0.46199969943349   -1.52753668534477   -0.81378189725770
O          -1.83122330289321   -2.11062229426193   -1.35044854410922
H          -2.71499840513905   -1.77490430251853   -1.23195082924528
O           1.07838705820155   -0.93207696141111    1.78589091255534
H           0.11861558131651   -1.01689123508410    1.55971847234930
H           1.51134624846716   -1.52477703579760    1.16049924755593
O           1.38360357498964    1.41011779931259    0.90534813642126
H           1.59637150198289    1.21024885151310   -0.09992784262761
H           1.36859677195342    0.47205517559144    1.36961384787345
O           1.59763305833063    0.70345707200113   -1.50453426836233
H           1.32341506729604   -0.23600937584265   -1.36361703654464
H           0.84475778150825    1.09066734407667   -1.96687420489441
O          -1.10025799474940    1.78886906485285    0.72055723297216
H           0.38201261927640    1.70999532574614    0.90318120376379
H          -1.20682138865966    1.33060103237912   -0.15175533719955
H          -1.50386267238622    1.17782303138234    1.34816092891855
