    19
        -40.92045287
S           0.77047639806926   -0.61247511276084    1.26034205473474
O          -0.55547056316335   -0.55188025900243    1.84591479713947
O           0.78753975735732   -1.40269995003309    0.03237038131345
O           1.36242258931207    0.69813396558496    1.05023429793532
O           1.68031583713410   -1.36593870552161    2.31453821315704
H           1.05315425747021   -1.88326424108189    2.81110008860552
O          -1.48233381208876   -1.36612303783242   -1.19084695072544
H          -0.66557725530438   -1.48743847423845   -0.63565424160110
H          -1.43244271338214   -2.00872779343618   -1.90108241671975
O          -1.04958589751815    1.10690808719505   -1.52017977337292
H          -1.18011344919686    1.47642579662829   -0.53656268262441
H          -1.36408969937029    0.12935616272638   -1.47336660979120
O          -1.13157745334476    1.78310714524133    0.89275131579773
H          -0.24425775286416    2.12042471132154    1.07218328937439
H          -1.12634511832404    0.89777289983988    1.33909028000394
O           1.44514561708505    0.75087404161803   -1.52862605366758
H           1.57854214426220    0.87391576008330   -0.55342824610073
H           1.56288707820219   -0.20017024638401   -1.63993138996846
H          -0.00868996443965    1.04179924017172   -1.63884638349066
