    19
        -40.91792344
S           1.24668918709885    0.92632957251093    0.66691906801280
O           1.10518039970560    0.04677688059224    1.81416346885214
O           1.80711235595147    0.23750205651439   -0.48378494861965
O           0.00951120851544    1.62033391942269    0.34157207811420
O           2.27992629147027    2.05204694991412    1.08334893540872
H           3.00885700964921    1.54492353710297    1.42706627285307
O           0.80169663931666   -2.08431734222581   -0.86712166705250
H           1.26430415959964   -1.21878806898605   -0.66581060142523
H           1.03569419311222   -2.29935065245529   -1.77299650765875
O          -1.21368569395209    0.85222371368677   -1.78624345655434
H          -1.90590815659937    1.49747873820136   -1.94181467315570
H          -0.64005710887754    1.22534355072871   -1.06142319686476
O          -1.57079607927121   -1.32929015385186   -0.54673498286243
H          -1.53803548463700   -0.48674786791706   -1.13522742652819
H          -0.62352596444551   -1.75741587920037   -0.67235803538779
O          -1.43579130790631   -0.25854289665330    1.71538005480445
H          -1.58162696418421   -0.96254593856032    0.44838208762231
H          -0.45728594944794   -0.28161079980220    1.90454175245779
H          -1.59225872516327    0.67565067095994    1.53214176808145
