    19
        -40.91689948
S          -1.60674143951394    0.81732741070037   -0.34562690960042
O          -0.42522010722132    1.07041912935554   -1.19159643382902
O          -1.43365183741962   -0.46382190688937    0.34851805898331
O          -1.93068978673480    1.89277109157212    0.53611049949829
O          -2.79489713556339    0.62259820682901   -1.36724496411360
H          -2.43487331125413    0.07339506820250   -2.05924240792497
O          -0.09102855083575    0.83188582339763    2.22116778160152
H          -0.60004165273659    0.13440478003411    1.75978188036230
H          -0.68275484043512    1.59589268860872    2.17177715322347
O           2.47854503167933   -1.05525111041300   -0.32256441613819
H           1.63259728847375   -1.55614662416319   -0.47582389640917
H           2.92995923894677   -1.02557045122001   -1.16840752056749
O           0.16092413260002   -2.22571066185514   -0.71780202117375
H          -0.47519185702274   -1.55972150591267   -0.35802216374489
H           0.00687322498974   -3.02868871875018   -0.21607892490998
O           1.52401714684396    1.21350110106721    0.30162287196759
H           0.72450734777907    1.24397553219959   -0.41449268596557
H           1.01498048856287    1.10043601626160    1.19241001436796
H           2.00268662878745    0.31830413077996    0.10551407424359
