    19
        -40.92453852
S           1.26694725417530    0.62037627602256   -0.57715358862821
O           1.68557804519273   -0.35338559187552    0.42453231740094
O           0.55839847840755   -0.03422868940349   -1.67150818407694
O           0.51346887174978    1.71628092069574   -0.00488872908241
O           2.57942332800901    1.25140558850055   -1.18882999457176
H           3.06097177135039    0.51369492299990   -1.55192211200610
O          -0.19863552056701   -2.17160980676718   -0.41651655716076
H           0.56897731100854   -2.26160397940020    0.16035952148408
H           0.07085921286608   -1.46129332840131   -1.05302124836021
O          -1.84629109958391   -0.75733349730795    0.86107007113216
H          -1.26630469690240   -1.46773229802335    0.35900142462841
H          -1.18960465271384   -0.34070811360915    1.56214630724890
O          -0.03411968685419    0.28908749003576    2.26598150862314
H           0.73015081982381   -0.01617866998351    1.71603629360114
H          -0.06570441721192    1.23878031792962    2.10206589502268
O          -1.84426094913838    1.06636101586042   -0.87908435849018
H          -1.56422230229574    0.65228100513023   -1.70404990575100
H          -2.00020108923781   -0.00187028914276    0.15336291813864
H          -1.02543067809066    1.51767672676941   -0.55758155913695
