    19
        -40.91832170
S           1.03993415132643   -0.21634056800746   -0.90176649397758
O           1.13146821967764    1.18725024019529   -0.28025171280462
O           1.91352628325783   -0.27916034618055   -2.02669412750421
O           1.17025860490108   -1.20981369306437    0.12277917983545
O          -0.44315422731431   -0.28318197579870   -1.40614908981980
H          -0.47472487984770    0.38627590851614   -2.13338983370456
O          -1.72780424216946    0.07492728866313    2.31168726257020
H          -1.69929204641016   -0.71735061557936    1.72497303051012
H          -2.09126235289118   -0.21915565107947    3.14865033822250
O           0.27075059024640    1.54288202384102   -3.11174966467688
H           0.46633795486925    2.34436959999428   -2.61870677194624
H           1.08309826203372    1.00959334121690   -3.09895644035474
O          -1.35641018929979   -2.00589944123244    0.68435355547061
H          -1.76963233164060   -1.82737855307173   -0.16405776583285
H          -0.40165892613048   -1.89334561197682    0.52869847297172
O           0.83847721428213    0.66529735554754    2.14931115405923
H          -0.14107361511818    0.56860876558170    2.27892122900506
H           1.18024915121223   -0.23085023765912    2.04194830589362
H           1.01091236900670    1.10327215009921    0.75039938208255
