    19
        -40.91923787
S          -0.11231713489087   -0.96982298075946    0.02381710536021
O          -1.26726225113496   -0.22507760369681    0.46386297109752
O          -0.31290888630513   -1.85452285528812   -1.07355745395648
O           1.00253140741246    0.05854115862220   -0.36265945440169
O           0.50837482447559   -1.68815639874128    1.22026589986144
H           0.29361330338912   -1.11023013446811    2.04606669222554
O           1.60859145525980    1.63373088683305    1.83372450354812
H           1.45708154875396    1.22378306386623    0.96775653250998
H           2.55160092458135    1.58648460761391    2.00264961849418
O          -2.03745029496099    0.42227731944284   -2.03439503406564
H          -2.53858661962139   -0.34800650694860   -2.31212533012556
H          -1.90055269912513    0.31590151997117   -1.07592413448508
O          -0.17948614419721   -0.00862227291609    2.96835549790909
H          -0.96790232602201    0.20368479795362    2.44998681761554
H           0.46386450805579    0.70826900629181    2.77795368932091
O           0.48907660732603    0.18236176938646   -2.82545949941824
H           0.48167257678501   -0.76805023217125   -2.98455910173538
H          -0.45908997050110    0.43269011154117   -2.70794594882588
H           0.91914918074363    0.20476473344799   -1.37781336084071
