    19
        -40.91923796
S          -0.85998666938366    0.46012350419749   -0.03769582387792
O          -2.16164642275408   -0.11046419423295    0.04670551976872
O          -0.15172037067660    0.62367424728350    1.20885732420520
O           0.01763060999857   -0.43658213132313   -0.97358414851212
O          -0.87622338236377    1.79198117342354   -0.78516877253849
H          -0.02099546662841    2.29184872235050   -0.50121948028112
O           1.30769827469483    2.66819988108313    0.11630161080159
H           1.93753586914215    2.12500131732019   -0.40561385369624
H           1.16108181621479    2.18008090888624    0.93825761422780
O          -0.80896438613307   -1.82457195815157    2.11937171561584
H          -1.68097505534739   -1.68584185351583    2.49635517274746
H          -0.45114146329194   -0.93479895440203    1.94941132251612
O           2.47642458279643    0.77374781338213   -1.37623319859113
H           2.63022037819325    0.86423265994627   -2.31871650494198
H           1.70480344614406    0.19530984993567   -1.27158677076126
O          -1.04688037709871   -2.64540903248370   -0.39764962304384
H          -0.89653149944313   -2.56774383365713    0.57551743859792
H          -1.95962969339775   -2.36846990783431   -0.53505414497493
H          -0.32070018058021   -1.40031820218210   -0.84825541722805
