    19
        -40.92315430
S           1.57577949900222   -0.22386536051992    0.59116629555629
O           1.03448807189186    0.43824034609179    1.78103266754695
O           0.69402175932056   -1.31776649140652    0.17949520956486
O           1.86090757496295    0.67627217875686   -0.49360467578311
O           2.93326277452023   -0.87295150006306    1.05579315490962
H           2.73251603741579   -1.16263749910836    1.94025330651587
O          -1.91381075398475   -1.09792027867994    0.62173416808998
H          -0.97200942704129   -1.37679248683352    0.59927390878742
H          -2.21696829321152   -1.17034575108000   -0.28954300198906
O          -0.67745221990421   -0.71972990494396   -2.01611614101747
H          -0.08052526977953   -1.00868520352398   -1.29054594742796
H          -0.21699308798522   -0.91770030901547   -2.83285728030523
O          -0.42002767715036    1.80027459799945   -1.14099828027387
H          -0.71344763291383    1.01273274905630   -1.64740185762303
H           0.53480692404501    1.62244795747745   -0.98181514894525
O          -1.21941997722273    1.28644584503239    1.16359656466817
H          -0.97304810798141    1.63468424122880    0.18363479474793
H          -1.67541305833969    0.37494518887063    1.02346596880330
H          -0.28666715563539    1.02235166062088    1.55343629414690
