    19
        -40.91923797
S           0.85805077996801   -0.44828758316657    0.12114860382419
O           2.15411451769722    0.13967829517118    0.16275485126777
O           0.06803481829521   -0.33980263515938    1.32374947063225
O           0.04892786875399    0.21142462768133   -1.04504060182556
O           0.91730796441730   -1.91185847026180   -0.31133729684200
H           0.04296027343291   -2.34545310124073    0.01953355011510
O          -1.32527582276626   -2.58949438881856    0.61658787733128
H          -1.91654247540792   -2.18143163437203   -0.05275868001365
H          -1.23100651773790   -1.93030255429750    1.31799217626723
O          -2.38344748705689   -1.08381116183512   -1.33161666401190
H          -1.61811110578494   -0.48837510684838   -1.30717792297034
H          -2.47489841688791   -1.38219132389734   -2.23861851771054
O           0.67509309505915    2.25552454545825    1.71295310473633
H           1.51907121722819    2.21211189414291    2.16823243983347
H           0.32515541301582    1.34664334045216    1.72032346789921
O           1.08495057447043    2.50280732313718   -0.90183547473277
H           2.00298243656859    2.21005871205505   -0.91347759365858
H           0.38330230737097    1.18217326226118   -1.11357416930186
H           0.86933054941408    2.64058594956910    0.05216138912977
