    19
        -40.91833225
S          -0.46408679394518    0.32394485392455   -1.63139868712513
O           0.36960341878931    1.41390287302084   -2.07346617912382
O           0.29909944490723   -0.92525666248349   -1.48349713311633
O          -1.24565606399095    0.60612661275543   -0.44343303611453
O          -1.51085464610450    0.04912657159204   -2.78810425915627
H          -0.98411318128364    0.11144053078147   -3.57912799376698
O           0.93234324070843    2.08721420993029    0.40718036752907
H           0.00987492459488    2.20041591607743    0.65381582022703
H           0.89633091028959    1.93361170707692   -0.56078716997734
O           1.83712008707566    0.01835640812046    1.73118622199612
H           2.77672859675840   -0.03351634323929    1.54628439898595
H           1.50948438220536    0.83626415619403    1.26329557316217
O          -1.91547934610826   -1.15113141520032    1.33903766578577
H          -1.83234495283621   -0.47839524812653    0.61567083145363
H          -2.07080175869870   -0.66134593085922    2.14918927491384
O           0.45176653757772   -1.88224790537047    0.77145910320765
H          -0.50363625198495   -1.73061586862596    1.10830193779209
H           0.40117736057983   -1.54584412004306   -0.25154993533104
H           1.04344408140587   -1.17205033558697    1.22594319847307
