    19
        -40.91923798
S          -0.17081005507569   -0.60929941718034   -0.73834192682470
O           0.38095791234718    0.66383776605617   -1.13420942781274
O           0.57522947532678   -1.76346209083363   -1.11057736198784
O          -0.32957745945126   -0.59954847735050    0.81882709604807
O          -1.61979686105112   -0.69879286308127   -1.21276760503246
H          -1.97636042172491    0.26815884569168   -1.23383964472886
O          -2.12586050042171    1.76678763065768   -1.10018476662977
H          -2.21461411401284    1.87697200931763   -0.12849699323641
H          -1.20044208382601    1.96301215629225   -1.30154117354389
O           2.88670579181343    0.01220226925230   -0.38944301234990
H           2.05832517301714    0.43255325911030   -0.68207381422572
H           3.21106485090312   -0.47732062313177   -1.14900394467055
O          -1.99801106495609    1.48328698340566    1.56132269332811
H          -2.71774384363853    1.13378490578830    2.09034141588683
H          -1.34540297943262    0.77154619488277    1.46948916071199
O           1.86947448422771   -1.69344775033619    1.37722273666441
H           0.51976509433226   -1.04022954382356    1.19732368057305
H           1.77415128386008   -2.44738624982593    0.78477451552482
H           2.42294533773841   -1.04265497489880    0.88117838232154
