    19
        -40.92453847
S           0.82823420365922    1.12910184305856    0.60141732324657
O          -0.56019707899862    1.34191124820549    0.99548018679979
O           1.33882461054689   -0.11851547471387    1.15767481548078
O           1.01841315880215    1.21696408063963   -0.83116442633423
O           1.67328092071179    2.30229775028648    1.23741843907710
H           1.53176316634998    2.22658352612444    2.17660987194429
O          -1.20038335331880   -1.11956363895555    1.49496934119022
H          -0.34531474590204   -1.41010783863184    1.83338492505467
H          -1.09960965363710   -0.13639763930038    1.42140425908289
O          -1.13935805529467   -1.56774095158787   -0.98358854907310
H          -1.37112547312385   -0.60788044614837   -1.33135818972206
H          -1.27082655125680   -1.50633643033249    0.05169300328541
O          -1.44524725507330    0.86368828680518   -1.57280093693295
H          -0.49443844329783    1.11629841812267   -1.47505633044653
H          -1.86715259001388    1.27472974065821   -0.80888205156266
O           1.37900986278965   -1.48740057209502   -1.05270411782489
H           1.50729629507957   -1.08881564303209   -0.15582463261453
H          -0.10314425100491   -1.65571184101678   -1.10466042239568
H           1.61997525296625   -0.77310441802551   -1.65401250821955
