    19
        -40.91868599
S           0.72965644329603   -0.05784697437529    0.57281433709120
O          -0.49181591598354    0.25690348662069    1.46265342437880
O           0.32124990405523    0.03709918327060   -0.80958176291826
O           1.84056623568350    0.76795562038787    0.92773040595585
O           1.06090886439763   -1.50782660782540    0.93110386769731
H           0.27177284992232   -2.11493607166600    0.73095744697355
O          -0.90659699284934   -1.90776533472815   -2.12951170846755
H          -0.35175167964525   -2.13834539635080   -2.87697378545037
H          -0.50652682549508   -1.10674744282682   -1.73071415504937
O           1.15573391449991    3.33453030764655    0.57878022395052
H           1.56769876384311    2.45182638323922    0.65608875969763
H           1.36014740788155    3.79866771768765    1.39305057150644
O          -0.85619652835977   -3.05496315900488    0.25672641892114
H          -0.55074662561466   -3.96155159664090    0.17588870128166
H          -1.03073056443438   -2.72405652778020   -0.65657125233497
O          -1.21322250227552    2.24013531431893    0.05468079910524
H          -0.44427758091919    2.83415622219956    0.21617599841717
H          -1.02276227951797    1.79390535497977   -0.77796060409936
H          -0.93310688848283    1.05885951084841    1.02466228333725
