    19
        -40.91923795
S          -0.10276019558919   -0.94491018240058   -0.20357162516590
O          -1.13777796076689   -0.40381824765230    0.64376333007022
O          -0.53280476532553   -1.53400214787929   -1.42641011725508
O           0.90014281532109    0.21077152341851   -0.53295862792860
O           0.76287040845836   -1.90466862643992    0.61019758887930
H           0.72820792546430   -1.56835253850706    1.58398377972340
O          -2.43333384671520    0.78748069890419   -1.39629520372831
H          -2.95820512998971    0.06959499176752   -1.75822464951298
H          -2.09461324070332    0.46109417788430   -0.54356743104714
O           1.96223985526229    1.20853690964820    1.82272155442470
H           1.62855447254445    1.02375892264101    0.93086173390539
H           2.91946683405313    1.17134462404557    1.77470071593186
O           0.46100423783266   -0.76586783193340    2.83732812262903
H           1.04709501901217    0.01168594724104    2.71069860596103
H          -0.42054684227406   -0.47506700680292    2.56567723280986
O          -0.13100296500768    0.92501663545715   -2.71722124143919
H          -1.03481230513876    1.07343519354461   -2.34698992960653
H           0.59947402638899    0.60391270969019   -1.43512795784551
H          -0.16319835285949    0.05005424734238   -3.11956589081459
