    19
        -40.91923805
S           0.74998490414469   -0.30360733698352    0.54429880607882
O           0.83752448141128   -0.34903507750704    1.96469753546708
O           0.00281377718903   -1.36596959595371   -0.08443032427603
O           0.09325923445963    1.05516873935375    0.12891127270810
O           2.13046866662273   -0.20880517008066   -0.10222933331028
H           2.01644650709667   -0.53416454520723   -1.07335624100899
O          -2.02126826411267   -1.24243433447969    1.68880617289019
H          -1.41132596414977   -1.41144817599510    0.94855655616240
H          -1.69776946432853   -1.77620875531479    2.41829322174924
O           0.14118087535995    1.30102271020571   -2.63020312143269
H          -0.01855072331878    1.32809269474563   -1.67383176876236
H           0.57158048190543    2.12583770852544   -2.86357790213934
O           1.44807170412903   -1.02595737485101   -2.38607225058797
H           0.76064441075789   -1.57290328128296   -1.98141632264187
H           0.98696081031368   -0.22683576764655   -2.72222976753117
O          -1.41902150460391    1.30909182315155    2.12708109543732
H          -0.56464035242521    1.29841736829727    0.88186307690526
H          -1.86376399858741    0.43401558965658    2.01653988758569
H          -0.74259558187858    1.16572278131892    2.79829939657479
