    19
        -40.92453695
S           1.46094332898014   -0.26790730761755    0.34173892001598
O           1.26097629685413   -0.68810401583580   -1.04016422449932
O           1.22982401854432    1.16549246822994    0.48575322320997
O           0.68388244298851   -1.05310681594740    1.27765123190235
O           2.97906197031159   -0.52562622206142    0.69363720729523
H           3.46854618982789    0.02720245599777    0.09146577543149
O          -0.27807653336893    1.52106385197528   -1.59249937668749
H           0.33509226140742    1.57150089429057   -0.81555702744389
H           0.13781258196065    0.86693613708875   -2.16644120933032
O          -2.11841464352852    0.29354517754933   -0.38688433234601
H          -1.84407456698328    0.51108435818153    0.59917978800268
H          -1.47520410227105    0.87727953291183   -0.96891384242840
O          -1.10900109508282    0.72577671777206    1.88231184909316
H          -0.55059124733717    1.50623807943992    1.78515323879313
H          -0.46492092634436   -0.02376697717396    1.85535086674415
O          -0.99211088455569   -1.93972356854373   -0.69744128166652
H          -0.82261003480322   -2.29354689010374    0.18332313628185
H          -1.78978550098741   -0.68749229689160   -0.54841498870084
H          -0.11134955558352   -1.58684556928989   -0.97924895366362
