    19
        -40.91790590
S           0.31781896954701   -0.25866139263297   -0.94169005794614
O          -0.79094684271818    0.28213708651211   -1.67402951469087
O           1.27856620458696    0.84745517810939   -0.54624010548006
O          -0.04658290462853   -1.04870428026555    0.20651309556056
O           1.19369057395757   -1.13236136605942   -1.89301909042976
H           0.59210084194316   -1.84620440575572   -2.19168100395631
O          -1.06011309324638   -2.47548441897074   -1.99854387535631
H          -1.54812325811314   -1.68113678632179   -2.24426438902908
H          -1.09736920564684   -2.52424237152727   -1.03683815692827
O          -1.26790415120106    2.14809730122236    0.26099933647185
H          -0.63302735775295    2.83613952815572    0.05048868897164
H          -1.28630385601575    1.55413845987023   -0.50538244204969
O          -0.63098749525563    0.53084541547439    2.36362726863101
H          -1.00642687339564    1.25105444327034    1.82396511742006
H          -0.68513048547784   -0.24973551889768    1.79186321684341
O           1.90238989908200    0.61478942553603    1.85735888344770
H           2.18631185405187   -0.29141346085599    2.00226849214287
H           1.61771680529951    0.77042373327940    0.45335564140374
H           0.96432036493546    0.67286341002625    2.22124888500003
