    19
        -40.92044773
S          -1.55915977923863    0.31698321529727    0.13516633609744
O          -0.85729952026105    1.47797928316435    0.67691102887370
O          -1.51082552826860    0.29154785420482   -1.31387095262369
O          -1.09428019624586   -0.91497325673490    0.74943648608948
O          -3.08500369318256    0.45975478755225    0.53132467481932
H          -3.44066622069046    1.02261801784382   -0.14974450307489
O           0.77045690835241    1.49063539009313   -1.50284981580723
H           0.53072411782120    2.10971897462038   -0.80031961641300
H          -0.07811400386120    1.00278138451307   -1.66268499003650
O           2.12292973819302   -0.24002431163601   -0.29466125703711
H           1.62941406211911   -1.10633878877032   -0.54082354234367
H           1.66253800689487    0.50684498295201   -0.88607837216628
O           0.59070442481081   -2.21341966848625   -0.71929933320568
H           0.70532412073783   -3.08271260112437   -0.33068133021337
H          -0.17230467592622   -1.78731159402130   -0.24824184887059
O           1.05983382494850    0.28956199838390    1.92619430748840
H           0.56397669685069   -0.49970150248597    2.17292121374183
H           1.80804212466082   -0.01781150860387    0.68302366289082
H           0.35370958194969    0.89386734309892    1.57427785176986
