    19
        -40.91904976
S           0.58598825715383    0.98376351472088   -0.22756779087781
O          -0.91850061978643    0.75741926750819   -0.47137163255710
O           0.80401892888358    0.95227732216443    1.19694476275678
O           1.35222381481283    0.07018982669026   -1.01000057522515
O           0.82237127384288    2.42563504632879   -0.74104771809149
H           0.30480022474576    3.00218807713486   -0.12564117185537
O          -0.70887613820361    3.18493398757844    1.22475371922850
H          -1.58263724428876    2.84396513497373    1.01470567707418
H          -0.23000824599499    2.46263705626218    1.66181887143196
O           1.35952720436808   -1.71516376285259    1.21283635536320
H           1.16723413138955   -0.79038423036859    1.43593529073735
H           2.01617138367518   -1.66903932568623    0.51222926330955
O          -0.74805112402953   -2.85761364877802   -0.00023286471460
H          -1.45700407356231   -2.92736641056447    0.64054929580835
H           0.03837036406594   -2.52587746297308    0.48883847589255
O          -0.89059865921218   -1.18245918008698   -2.03202718134832
H           0.04607285151583   -1.07677477862013   -2.24266651154666
H          -0.92885751807681   -1.91909290065260   -1.36928169599122
H          -1.03224481125780   -0.01923755272955   -1.16877457946108
