    19
        -40.91440014
S           0.70975685809879    1.41814384014253    0.56664133047570
O           0.48693363190089    2.44244453220912   -0.41071778255943
O          -0.48104824853582    0.92496384819287    1.24550931143007
O           1.49610389698830    0.28055915736960    0.05129771109381
O           1.60502520857727    2.05818147366110    1.71257884955944
H           2.13953814821971    2.72653604613359    1.29218369683907
O          -1.77128625285153    1.26478325270691   -1.27673841160563
H          -2.09983656573647    1.10186805778287   -0.38776293991349
H          -1.03979743603336    1.89434504164127   -1.15894420281973
O          -0.16371189476677   -0.79665517832192   -1.84612402471076
H           0.59238747076250   -0.38803702644169   -1.39378661978895
H          -0.86126109379908   -0.10466213839170   -1.84816113985722
O          -0.80823599417660   -2.64927146038633   -0.19163982265029
H          -0.65031765181613   -1.97196633815233   -0.92823345428370
H          -0.41210101137570   -3.47192900125442   -0.48573903673522
O           0.43015303296795   -1.35552714855631    1.54755810788508
H           1.10542172601344   -0.85641668749817    0.93040219913977
H          -0.15586786036626   -0.52741914989304    1.69193827459618
H          -0.12185595406547   -1.98994109091051    0.88973794390768
