    19
        -40.91451135
S           0.83350938564667    0.63702609174567   -1.13531215237541
O          -0.56396856936861    1.22941115191914   -1.11717581894148
O           1.68531129373106    1.34925591151576   -0.23591685154688
O           0.77970079772713   -0.78765438280261   -1.01256711423992
O           1.34334086635894    0.93958663293099   -2.60049322127279
H           1.62269481276548    1.85249418036191   -2.63824374288679
O           0.03256893128405    0.46028251190153    1.83126694349541
H           0.69314779772246   -0.25049318269239    1.94845653175065
H           0.46296279772733    1.09823356333512    1.25232755792250
O           2.12188825323068   -1.19833908089604    1.34771734059394
H           2.78870041034651   -0.51494592734703    1.24524000545928
H           1.71594612671338   -1.30431443285629    0.47401768625212
O          -2.35965878154740   -0.63227882699700    1.34804476466905
H          -3.01518069697560   -0.00915161059969    1.66582732942641
H          -1.48353618618701   -0.25753444645760    1.59476924128437
O          -1.95661175240835   -0.79978930606736   -1.21387588913505
H          -1.19700311662826   -1.39454843629346   -1.27895242258903
H          -2.24348428745052   -0.83200736080261   -0.25526262890518
H          -1.26032809274119    0.41476695011437   -1.21986753899111
