    19
        -40.91439947
S          -1.58207999583931   -0.41336025795293   -0.40377148667167
O          -1.22819459991978    0.87173191259408    0.22988788331385
O          -1.70920331289693   -0.32626869259081   -1.82858483360332
O          -0.70000019322616   -1.46332265193312    0.08767866878786
O          -3.01827956072434   -0.77833387144126    0.16915693494707
H          -3.65172470552379   -0.38622905419258   -0.42612960587212
O           2.28116199190133    0.56670374274663    1.47556823872176
H           2.01857999826063    0.88848434541577    0.55157816921484
H           2.63057760325569    1.32824727577989    1.94263979527884
O           0.90184968909649   -0.85852335900126   -2.19543263925289
H          -0.03923760652980   -0.67585904144004   -2.35760394947920
H           0.90541594755486   -1.58357917965606   -1.56377828845493
O           1.28473080548920    1.36097896822264   -0.75179611665245
H           1.33561410722735    0.63214146080843   -1.40889795184169
H           0.34211620605164    1.43075928855395   -0.52853860206722
O          -0.01812918426711   -0.18456828681924    2.09307632347789
H          -0.57006310782912    0.47605953295279    1.50567370466548
H          -0.18279322013605   -0.98267871749435    1.47169380486979
H           0.99965913806556    0.09761659545513    1.93757993060239
