    19
        -40.92453789
S          -1.41162990412595   -0.46486318053282   -0.33769041655950
O          -1.54035054722402    0.66710458773029    0.57292773164514
O          -0.77146552952514   -0.05722340866488   -1.58347057192801
O          -0.75638421834213   -1.60043656853046    0.27656691889457
O          -2.87501604208194   -0.93543262968704   -0.70116876172122
H          -3.29563464151570   -0.16603749430990   -1.07398842946271
O           2.03932436347749    0.53473389334926    0.52788276173189
H           1.50666701857351    1.27148997811485    0.01143460462859
H           1.43164660595705    0.30932671679262    1.35017146139384
O           0.45782339426293    2.05192359288096   -0.71454227950321
H           0.00095752971624    1.33003448877827   -1.21713979935886
H          -0.20084356176498    2.32852775168437   -0.06666893904850
O           0.30426820880607   -0.04395794714674    2.26216362589154
H          -0.47517071185599    0.32101060654519    1.77333303850986
H           0.17222627535810   -0.99812915210407    2.21797546727509
O           1.52806491850692   -1.44259024929195   -0.94956573894439
H           1.98081521875825   -0.30815392407595   -0.08971518400540
H           0.70413121620534   -1.71702755602715   -0.47711976927376
H           1.20057039703763   -1.08029950579755   -1.78138574008757
