    19
        -40.91865340
S           0.87063902794214    0.49655293719088    0.04030554208068
O           0.01376740317558    1.44439431899236    0.71366117195964
O           0.68340020246523   -0.87097743264010    0.70079965841331
O           0.69891403674978    0.38547782426345   -1.37339266124726
O           2.34238292724363    0.87905733411094    0.33831133416602
H           2.36996332101432    1.21257577036921    1.27193977562208
O           1.76878238988040    1.91471107045078    2.65552925115782
H           0.89132371819044    1.84983260079584    2.23715701952492
H           1.95593346385479    2.85007427102736    2.76862982666999
O          -2.05953247916169    0.77309951005420   -0.93351235957103
H          -1.53731650867577    0.92733106851961   -1.72635977265055
H          -1.51111384523045    1.10774492744554   -0.20765587414395
O          -2.27991570745394   -1.91559414231056   -0.95074939153074
H          -2.31127253092155   -0.93405488062633   -0.96418291154235
H          -2.64169172605059   -2.18619147046749   -0.10537198532353
O           0.30457743204694   -2.34386882182837   -1.27514523152978
H           0.58522718890553   -1.59574392655031   -0.04732721507940
H          -0.68657484768817   -2.34849975547738   -1.24342605729916
H           0.54250652361031   -1.64592118334445   -1.89921012964458
