    19
        -40.91464311
S           0.01989389035970    0.86988322514907   -1.50479572341420
O           0.54093147337974    1.44113645641835   -0.16184814760561
O          -1.21224055718260    1.53343131400753   -1.80992079756273
O           1.06616189280273    0.83774190859072   -2.46145880778130
O          -0.30872575887979   -0.62386590344041   -1.14011913877705
H          -1.15941887507378   -0.64943252250604   -0.65943222056793
O          -2.65577009831678    0.13550596472488   -0.11672423698982
H          -3.50844617213516   -0.14075758135591   -0.46004864382657
H          -2.33811498399221    0.85646716307893   -0.70096241839176
O          -0.69880617797053    0.02700556275432    1.92295903832238
H          -0.28566374137415    0.78389059147971    1.48702538298103
H          -1.57754286621286   -0.04885384837943    1.53241408866781
O           1.25267694378984   -1.77114721623737    1.33533451451977
H           0.48239307357232   -1.21514963167927    1.57760663963599
H           1.68584281854635   -2.00162470031474    2.15945258946045
O           2.56243576022244   -0.01674410044227   -0.15975427233344
H           1.45983645516792    0.96851009807406   -0.05655104109895
H           2.16769290490042   -0.78855322039245    0.32177295668223
H           2.50686401839832   -0.19744355951805   -1.10494977197215
