    19
        -40.91893435
S          -1.02722019415196    1.34515147361465    0.38771383223457
O          -0.42152460797435    1.98273730125106    1.52924939552036
O          -0.23521602506583    1.37483328464669   -0.82611413149817
O          -1.47755642456649   -0.02187537210178    0.69118273837952
O          -2.34857522335220    2.16330201593234    0.06486366391664
H          -2.63775820576556    2.45038002464759    0.92575319355116
O           1.63517247500358   -1.84043183748624    1.04098455348581
H           1.47117680736563   -2.04653269441112    1.96331044839200
H           1.81119959785994   -0.86179320729600    1.00360239405656
O           0.11167329471156   -0.60167121743484   -2.46464582358037
H          -0.53496331065130   -0.52916558569000   -3.16905273910182
H           0.03347986689193    0.22902151472798   -1.92777326121738
O           1.84143763430321    0.77079417882361    0.91811919542209
H           1.09135254490220    1.24904500771915    1.32657818210498
H           1.84342841783291    1.07288134657834    0.00485767043793
O          -0.44013258163265   -1.96840082117036   -0.39814120138980
H           0.43235253237980   -2.03265949379031    0.15683402179099
H          -0.96529531260414   -1.16680648633494    0.07908330557621
H          -0.18303128531268   -1.56880945245898   -1.30640543808724
