    19
        -40.91416457
S           0.77379095843825    1.14171077804350    1.00137432173520
O           1.86744399183176    0.33945599351699    1.43985603748226
O           1.00404316967232    1.60369843024550   -0.43156769485081
O          -0.55316175648669    0.62104848769173    1.14212946415162
O           0.81603905960370    2.48661291904143    1.82920490833081
H           1.73051215785401    2.67268071819698    2.03316747402074
O          -1.05502220356276   -2.06331173329504    1.46030219038696
H          -1.86462164386386   -2.22640140712562    0.97174978841211
H          -0.96618228826287   -1.09951950296600    1.53400341031828
O           1.03430324063975   -1.67928836600945   -0.24139697442687
H           0.40563787266340   -2.08107841644621    0.38889459119084
H           1.56080956975690   -1.06561204269525    0.28613622735853
O          -0.61663520130734   -0.99922462198783   -2.21230348392580
H          -0.13309860048401   -1.07372397971220   -3.03650577999695
H           0.01210241883427   -1.27743054923375   -1.50308875048136
O          -1.27235700129946    1.38805147600522   -1.38914340045167
H           0.06964859730859    1.61289558377615   -0.92515847949006
H          -1.13894200064445    0.49636503520056   -1.81685361068201
H          -1.67431034077226    1.20307120777789   -0.53080024908118
