    19
        -40.92453854
S           0.60397426174939    0.16004160545546   -1.39015633771351
O           1.32092717874252    1.05825914181415   -0.49152584889284
O           0.79932081599209   -1.23052038227193   -0.99648578683329
O          -0.79516142598180    0.50792949164013   -1.52280123888158
O           1.24560766031053    0.33197902571203   -2.82318052915249
H           2.16201207112518    0.09570796747550   -2.71231867203233
O           1.48915157251337   -0.50886438725422    1.56591702441472
H           1.57635068783382    0.17719740239157    0.85599736658194
H           1.57534728110670   -1.34176634991589    1.08739139280639
O          -0.98291001985841   -0.18668813352697    1.92940749002131
H           0.04985194895075   -0.34937164441927    1.93956820239470
H          -1.09135343464259    0.76192468507314    1.50061421519703
O          -1.03858181131207    1.96306901691542    0.61450084495188
H          -1.10417117120198    1.53984457032197   -0.27661264979560
H          -0.13983412618991    2.31288337387152    0.63196707126046
O          -1.57924220912053   -1.65100591269559   -0.03360808247399
H          -2.07794987275421   -1.10300482603264   -0.65067361622363
H          -0.67403492031854   -1.68477317731481   -0.43260259413657
H          -1.33930447688033   -0.85284147734347    1.20460176844387
