    19
        -40.92047969
S          -0.06297607700411    0.55243699201368   -1.50669818546444
O           0.21153227421452   -0.82700152246744   -1.84552425753316
O          -1.25405814917492    0.66164869270508   -0.65074269601277
O           1.05878865359064    1.25337288691671   -0.91467061441307
O          -0.41356963574157    1.28668921184101   -2.86412004920230
H          -0.72332530964745    0.58049771909155   -3.42367618730422
O           0.46852167215179   -0.76481651530442    1.97847295473360
H           1.20436223346339   -0.94193444106504    1.22903187752445
H          -0.39013385998110   -1.18949499302291    1.60571475576605
O          -1.64963913461131   -1.47468469313246    0.77816759022499
H          -1.56994705637167   -0.74921845025211    0.10725097759609
H          -2.50309151392153   -1.36048176416697    1.20152385895316
O           2.02323511724506   -0.98475399246394    0.03141044817872
H           1.45563291692939   -1.35415091044471   -0.67665323107697
H           2.06358320769983   -0.04490053713474   -0.24017942810523
O          -0.11952871175835    1.63896458592799    1.48738955585997
H           0.27446689063747    0.26227522949080    1.92316433550134
H           0.63884427181324    2.04518460188340    1.04960960348314
H          -0.71269776946101    1.41036788945613    0.73052866131196
