    19
        -40.91237543
S           1.67664514085336   -0.20390094311798   -0.31573914353430
O           1.89214012839608   -1.01440187291561    0.95896538688745
O           0.99029902215274   -0.98210575795322   -1.30312126671128
O           1.12767377651024    1.08464221847058   -0.03450441046916
O           3.15570560502711    0.00278765176858   -0.79741112788564
H           3.45392678158353   -0.83919795359278   -1.13476380532487
O          -0.61560955528100    0.98179753932083   -2.26321193590088
H          -0.11793888797584    0.16155340431097   -2.11461085905684
H          -0.14013260179127    1.65246943867645   -1.76358016428919
O          -2.71568317232178    0.46643003854658   -0.66103463020482
H          -2.91832686293716   -0.45843221938886   -0.81034633446080
H          -2.06576337740861    0.71931220361244   -1.35312465324822
O          -1.17664152519572    0.93026501840611    1.47222345033481
H          -1.86638095461585    0.83648202871687    0.77449552579863
H          -0.38709556361398    1.25581422222858    1.01354768859782
O          -0.31160149087384   -1.39927277126490    2.04654768220240
H          -0.20141178193750   -1.46182080724643    2.99859969397218
H          -0.75108479171743   -0.49747718648186    1.86797882850425
H           0.97128009109990   -1.23494425179152    1.41909007496763
