    19
        -40.92453853
S          -0.41127545620820   -1.46611007536188    0.06601847516583
O          -0.36223204353807   -1.08451586227031   -1.34120431358416
O           0.90930244146124   -1.36449393302557    0.67637246047757
O          -1.42143619956330   -0.73707261874985    0.80379906973866
O          -0.83097694364617   -2.98789920142026    0.11754572239605
H          -0.15173770047762   -3.44727090273306   -0.36779520163221
O           0.46378770912097    0.76354684893226    2.10275363404016
H           0.76706842448420   -0.08725883729639    1.69799323501315
H          -0.45949739149128    0.59301430688566    2.32242300675252
O           0.47272388455371    2.12129625953930   -0.02088411641942
H           0.49789586900210    1.68942319993318    0.93249506928979
H          -0.48365247931372    1.90759008883137   -0.38855648033949
O          -1.74600033967282    1.24844151389164   -0.83859834392099
H          -1.56280133689136    0.76849170508869   -1.65502564069080
H          -1.83248790914151    0.53117149538323   -0.16368793529343
O           1.78202558313324    0.36959494158350   -1.27168851680841
H           1.00305816886909   -0.20549071280667   -1.48325672014762
H           1.10950974143999    1.51886336892169   -0.59068642730411
H           2.25672597788483   -0.13132158531758   -0.59801696673916
