    19
        -40.92079116
S          -0.43776537457596    1.18356747798220    0.78458577997436
O           0.66636512446210    0.28428078997989    1.09019607903029
O          -0.61877749776179    1.32269261316486   -0.66165443830483
O          -1.66548220213753    0.86593095473892    1.46717285303806
O           0.03327928477228    2.60315622424983    1.30215636536544
H          -0.74670338160503    3.14108270331957    1.20827925048028
O           2.70245639350987    0.39603585567780   -0.55899397492628
H           3.37032087381570   -0.22064226442653   -0.25236659704196
H           2.04805018864622    0.48857032872008    0.17333243571348
O           0.08865363923943   -1.98142997820768   -0.19025578043817
H          -0.89502376768532   -1.95926178467300   -0.12438500220515
H           0.38281847128989   -1.34654499333820    0.49398573072795
O          -2.43246210208962   -1.34880007077333    0.24602424190984
H          -2.24219757283626   -0.48687185784687    0.67594795654072
H          -3.04831309791683   -1.80458186118031    0.82296396572588
O           0.68768677885102   -0.33145319792358   -1.95957015335094
H           0.42486186827201   -1.16463867954690   -1.34773284846803
H           0.07540143840969    0.41939944015324   -1.54498725257356
H           1.60683091534228   -0.06049172006810   -1.62469859119764
