    19
        -40.92343666
S          -1.38791877420957    0.94593177950522    0.15653633128392
O          -1.75981933622017   -0.14958800506113    1.02627056452265
O          -0.48612665329417    1.88831933376215    0.82063788306852
O          -0.84855517922541    0.49078678309796   -1.11513635429094
O          -2.69774999760869    1.75262598946329   -0.18317945313721
H          -2.99626070811009    2.03878000304535    0.67441893976049
O           0.13423320611994   -1.97548266934791   -1.12163430136377
H          -0.34893021478630   -1.12208991279267   -1.18471842660095
H          -0.49682754971500   -2.65855356073066   -1.35224469690513
O           0.49685183582494   -1.39398426850884    1.47597944348710
H           0.52427051984952   -1.84711450014648    0.60737781150620
H          -0.41400401053270   -1.01586597866270    1.51374410633603
O           1.79274100123183    0.41344156897797   -1.48708714764913
H           0.84131834354658    0.63552908888108   -1.56215724567463
H           1.84827294300310   -0.52488562868856   -1.69910746726929
O           1.70575852855852    0.74019187235817    1.03543792375814
H           1.30924971986675   -0.20907832292875    1.32605795082457
H           1.93239141291601    0.64840265193577    0.03706772199202
H           0.85110491233806    1.34263378529260    1.03173641635523
