    19
        -40.92343663
S           1.31653740761786   -1.05005417393267   -0.09799137055713
O           2.09012381877144    0.12673038934166    0.30077690884170
O           0.62894893406700   -1.65013484386506    1.02546120527794
O           0.42252792489586   -0.75589834253119   -1.20670905497386
O           2.35883979438307   -2.10101053543884   -0.63765906550564
H           2.92552619682606   -2.23804259391831    0.11504677208227
O          -2.14337503205323   -0.51060075402493   -0.57040228237838
H          -1.23018082465546   -0.73704369414054   -0.85416687106174
H          -2.64788409106958   -1.32380958197916   -0.61730647707058
O          -0.50902663310595    1.72258346920881   -1.53901397790526
H          -0.04610648900238    0.86913343692250   -1.67115261586588
H          -1.44493294109734    1.49655607730946   -1.50111875258409
O          -1.06575143441805    0.19060815468265    1.78806306854816
H          -0.44191768555252   -0.57157218046812    1.72440462867217
H          -1.70810383096624    0.02551751533785    1.06636711196148
O           0.44471294459625    1.91565557661493    0.81294784785627
H           0.04606006576480    2.03409517837693   -0.12683115239543
H          -0.24504628669662    1.28952581200268    1.33849249657206
H           1.24904817184546    1.26776107042810    0.65079159016971
