    19
        -40.91955495
S          -1.13257592430194    0.85822618967299    0.73800219467439
O           0.16171422542838    1.28197190309398    1.27675064078549
O          -1.13714198898513    0.97447267312900   -0.71858874086878
O          -1.53507892446026   -0.44668811178997    1.19373391490778
O          -2.19024424591247    1.89651920493485    1.29108314280360
H          -1.76186751714712    2.74302172104177    1.20372417560652
O           0.83215983628793   -1.33263926978527    1.71219174789802
H          -0.14712187074590   -1.21910745498524    1.60963814252502
H           1.11592749391070   -0.45873524396432    2.01312927992316
O          -0.81008731021601   -1.40084658284021   -1.70873855554838
H          -1.02955361955836   -1.36580333459751   -2.64148821406214
H          -1.08516132042104   -0.53370498352755   -1.31337725198787
O           1.51282459289955   -1.38359526204647   -0.69664433677977
H           1.29918622812166   -1.47820632125591    0.33946857176982
H           0.61571078302006   -1.54741354351835   -1.16520710339914
O           1.57729184901945    1.12808683753190   -0.87005612312304
H           0.84384536984330    1.33679634986758   -1.46237775462798
H           1.18690138879727    1.30520308079997    0.02580852110602
H           1.68327095430909   -0.35755784190522   -0.82705226145849
