    19
        -40.92453854
S          -1.34087380146897   -0.68418333182213    0.23654654982928
O          -1.61288148413141    0.68203228248176   -0.19673995650109
O          -0.65769635095271   -1.43332135674902   -0.81173041733700
O          -0.64035058636186   -0.73586239344263    1.50251584240088
O          -2.73882371927933   -1.38139068367726    0.47022039378610
H          -3.17859205818808   -1.34052638822012   -0.37404967436829
O           1.94243158958359    0.95271582739449   -0.20346252091069
H           1.99141251709751   -0.07019456950920    0.01439462308543
H           1.33178096792876    1.00418374429262   -1.05049244398536
O           1.69334032547974   -1.50510800857374    0.29674487932707
H           0.85699460835331   -1.64348334882579   -0.21420380628208
H           1.41101987515324   -1.57620264122077    1.21602561615214
O           0.20889229924547    0.87503944222110   -2.02995989815730
H           0.18800674170209   -0.04111672386082   -2.33052396293870
H          -0.57484256164767    0.93978835565637   -1.42675126417330
O           0.27786738509176    1.69333035133763    1.53844124070238
H           1.35892883873271    1.36413286946173    0.56185679904951
H          -0.44758267759592    2.10971374146542    1.05801475195819
H          -0.06903188874985    0.79045284158544    1.74315323820525
