    19
        -40.92453813
S           0.12925071614859    0.22721389950763   -1.50122617279520
O          -0.74730050729145   -0.92375483050312   -1.31629030562234
O          -0.46396341586335    1.42803817324638   -0.92328784109115
O           1.47293679587337   -0.01460529195891   -1.01940849363525
O           0.24946440994372    0.47266777235067   -3.05685147560456
H          -0.64560085497528    0.60490947175605   -3.35552127498289
O           1.39185349998367    1.45958390909763    1.11761703148428
H           1.63631598123038    0.94798937821522    0.30780070044757
H           0.78633252517662    2.13248443460571    0.78462001209240
O          -2.06148924735126    0.29204138517321    0.77172076044772
H          -2.27293433980147   -0.48908172388578    0.24705636454701
H          -1.57147683691767    0.87354552893861    0.13600120376204
O           0.65234981061936   -2.12706973930595    0.51491137541820
H           0.05513885732574   -1.84987489824317   -0.22422870927519
H           1.53096451886208   -1.88854005542603    0.19732577956608
O          -0.04623837047099   -0.33725462898914    2.14620057582056
H           0.59574714761972    0.43970092445938    1.86477524967390
H          -0.96489873371327   -0.08195085803890    1.71692548769581
H           0.27354804360178   -1.16604284099952    1.59185972205090
