    19
        -40.92079070
S           1.01006393267092   -0.81301127137031   -0.72403601715253
O           1.79588430621103   -1.55160866126086    0.23049307090738
O          -0.35936347341768   -1.31895656127367   -0.83605996347038
O           1.02019447839221    0.62899600603915   -0.51990100584062
O           1.67283669257665   -1.03182361452278   -2.14461301019915
H           1.79066718371162   -1.97554572324636   -2.18919449208242
O          -0.50978743537749    1.04095098748901    1.62376053059936
H           0.21949151340791    1.10116362960525    0.97385589127850
H          -0.30937046460459    0.21632432972232    2.12570013446502
O           0.35777328881172   -1.31235884600261    2.43535203292140
H           0.93220566543199   -1.49091495769765    3.18233026723805
H           0.88744782241558   -1.50435951433635    1.63136883263519
O          -0.84850131970378    1.95871608123800   -1.79312239829374
H          -0.02997755057832    1.50621284404000   -1.48008602137402
H          -0.73377418394136    2.89232074982754   -1.60484847716341
O          -2.06285289375844    0.36148202076349   -0.20347954662115
H          -1.55940405895477    0.68273456956356    0.68012095421462
H          -1.81653180422880    1.06146624869188   -0.89582360800064
H          -1.45700168906684   -0.45178832726526   -0.49181718407085
