    19
        -40.91790590
S          -0.95033133673865   -0.06166894611065    0.38137787651518
O          -1.65209927675499    0.46114743629680   -0.75548267771441
O          -0.57637066062991   -1.51380471987172    0.14820434022621
O           0.20415180165810    0.70207261781359    0.78026550279891
O          -1.92653942175454   -0.16299844869431    1.59459915505241
H          -2.21329310076842    0.76034842524727    1.75557913671757
O          -1.98105168832980    2.43093975100767    1.19107165923808
H          -2.20851209688080    2.30217266849581    0.26300527600661
H          -1.01916847475188    2.47697810298623    1.22572233139963
O           0.30297312632019   -0.39904589559699   -2.45689088182674
H           0.07886482909479   -1.32383562527622   -2.58087881403972
H          -0.46506488173056    0.00941823362901   -2.02829211026022
O           2.38249492107693    0.10348182573357   -0.76375537994051
H           1.80969483837612    0.65410269682894   -0.20891116618540
H           1.85584394280817   -0.05689050615302   -1.56859996251342
O           1.80754745375707   -1.89088929739447    0.77679752408576
H           1.94079721252092   -1.53429568693609    1.65882681762665
H           0.41274036557336   -1.74485404161020    0.44577849039016
H           2.19732245715777   -1.21237860042601    0.14158289244123
