    19
        -40.92136391
S          -1.33651097691985   -0.12356186696798    0.34451664274983
O          -0.36354490190556    0.71557662074480    1.00704444425085
O          -2.36931119356556    0.60178477851061   -0.35267218563851
O          -0.67141288208598   -1.11690339291706   -0.51704053375767
O          -2.04979287960816   -0.97498113480741    1.47932172023539
H          -2.92328551575187   -1.13854416782925    1.13508580278432
O           2.18025051670672    0.34592703320958    0.49911138393336
H           2.18724951438767   -0.59463637749588    0.78349784941115
H           1.33978987108852    0.67948484468861    0.88856962655334
O           1.19048282238558   -2.03122115673310    1.18710671519608
H           0.46992123787721   -1.87072492312158    0.54902545460219
H           0.77680872577865   -2.06247755015155    2.05137548612170
O          -0.54177537289344    2.14496666280558   -1.45992974395960
H          -0.29157778455319    2.68665202725554   -0.70626094804277
H          -1.34355536785578    1.65353722357091   -1.17002927200171
O           1.09073672557370    0.20083106949695   -1.72161195140694
H           0.54295856566564    1.06447138073652   -1.77113930214338
H           1.72283812622672    0.29399837280405   -0.83291938014679
H           0.38973076922460   -0.47417945442986   -1.39305181873671
