    19
        -40.92453800
S          -0.15305602371178    1.07374354783776    1.07033729825446
O          -0.78715216671746    1.57006528648096   -0.14631041546358
O          -0.83538562016395   -0.11814892329444    1.56046907370398
O           1.27175001482826    0.87158215408878    0.91154738451363
O          -0.32583729979279    2.19494562884829    2.16932587015450
H          -1.26693652530431    2.32419716316900    2.24342899673019
O           0.98939490495628   -1.85134102987355    0.90649627296953
H           0.24742489938929   -1.32316619245281    1.29412208008415
H           1.76613438878888   -1.30376888462798    1.06998551032057
O           0.35636981035430   -1.52097428267345   -1.51079081247136
H           0.67957378363146   -1.79101891101114   -0.55228546344914
H           0.83995129088605   -0.61518407728240   -1.71377089749819
O           1.36472720458024    0.78276766272043   -1.68202005943179
H           0.63142965623592    1.38514718519969   -1.85488813435244
H           1.53304533233779    0.89595970250632   -0.71432454676555
O          -1.92299682910424   -0.63032296856299   -0.91222608605045
H          -0.64567955264060   -1.25447356305863   -1.37651387050956
H          -2.11954135097977   -0.98561161977027   -0.03742819660185
H          -1.62321591759588    0.29560210173356   -0.72515399420437
