    19
        -40.91607309
S          -1.86245135354070    0.19176246625588   -0.41060430798501
O          -1.01160131986494   -1.10827504909318   -0.58456915884161
O          -0.92355795193855    1.27512931777319   -0.19946210274379
O          -2.77360863556778    0.37052010250849   -1.47744694853421
O          -2.60292926521209   -0.11185312467475    0.90182461728880
H          -1.92347341488314   -0.46972125476010    1.54987745032358
O           2.62144054151902    0.23269622390214   -0.83234808361468
H           3.15280641199410   -0.54814827895935   -0.66858755346015
H           2.17064067685214    0.45284252379792    0.00530013130719
O          -0.62959925133943   -1.09327828533911    2.24614769416737
H           0.09068026538097   -0.45283682729086    2.07479847490535
H          -0.46984006443233   -1.84212758786628    1.66439983924550
O           1.07698564652556    0.81671856938028    1.35179469510251
H           0.32526962659512    1.05744535191066    0.74358009352230
H           1.26421140489261    1.60698929402866    1.86260180949117
O           0.49201461450232   -0.17065814099918   -2.40096530737298
H          -0.40256629832179   -0.89915534324415   -1.36593231360251
H           0.06530129465391    0.68027512562515   -2.53063610626662
H           1.34027709217135    0.01167491705496   -1.92977291292462
