    19
        -40.92120165
S          -0.94539842545597   -0.12056749226567   -0.13816992233106
O          -0.22517278195273    0.67022303764967    0.98823893975421
O           0.07683039668744   -0.60206578452042   -1.04617916554877
O          -1.77764308373765   -1.12618770624483    0.42926646320779
O          -1.79143948256706    0.93802910185991   -0.83588117178137
H          -1.20818809608028    1.68224923962246   -1.23039167456801
O          -0.23605739834462    2.67475925565331   -1.84524940305058
H           0.64509853495694    2.33801124366568   -1.53337330093622
H          -0.23963792005764    2.58677498861969   -2.80143190102786
O           0.73710581716608   -2.65642919456458    0.58337705496514
H           0.07366073618957   -3.32719500753175    0.40556442874448
H           0.63428995856461   -1.99417485490503   -0.12148477338945
O           1.86178197315316    1.38291843522086   -0.94002147344535
H           1.37851394736406    0.54273882215629   -1.06000722525702
H           1.93402241993277    1.51107052324246    0.00923989551535
O          -0.10761008987212   -1.21760037908223    2.66974638260866
H           0.35486602940254   -1.83950878830665    2.06039290684271
H          -0.12875633771305    0.02751641107042    1.77492738843783
H          -1.03626618757715   -1.47056184134397    2.63143654128052
