    19
        -40.91749328
S           1.07738303418593   -0.61073853360532    0.40336834408314
O           2.05432778767286   -1.34232552740842    1.14655999477555
O           1.53302381065713    0.83782716650790    0.23824380480383
O           0.66801409869524   -1.13892349109677   -0.86656437719178
O          -0.21995140501217   -0.50539899394093    1.27820350717554
H           0.09661133588827   -0.38894002748657    2.21029249755278
O          -1.88551755691654    1.62263201889338   -1.81262095976375
H          -2.42735929748673    1.72687604498235   -2.59648612525351
H          -2.05255443317474    0.71181141697468   -1.47518421292657
O          -2.02299729329792   -0.88604192464585   -0.90673115905621
H          -1.08257274465691   -1.12308397655356   -0.99994396366024
H          -2.18102917761811   -0.86810936440242    0.04043488037704
O           1.14256428357892   -0.51688257814194    3.48732986507364
H           1.00915986903429   -1.23795431093877    4.10779938258745
H           1.80614660187377   -0.82162748917092    2.84025066712743
O           0.73080857367682    1.34853526446034   -2.08062619066452
H          -0.22483765242099    1.59926035636734   -1.99600463641276
H           1.24000137195614    1.17924178076492   -0.69705452886451
H           0.73877878254852    0.41384217852753   -2.32126678053955
