    19
        -40.91667390
S           0.35070154509061    1.13931670250449    0.29491188993491
O          -0.88308530314210    0.39779616543118    0.10729819479675
O           1.22407983708257    0.37890794089853    1.29541808007479
O           1.06757782563488    1.43090435156996   -0.90191228479438
O           0.03300077041989    2.46407476794688    1.02131466225108
H          -0.68096804570006    2.26687133295983    1.67863473519327
O          -0.20622321967244   -0.26573558336449   -2.55640373431201
H           0.35024474208375    0.46729956517242   -2.24426717448953
H          -0.95931350155930   -0.26097128996992   -1.95712047695871
O          -2.02567117236792    1.45299672201837    2.25083163930815
H          -2.87385921828782    1.87963860404846    2.10710913837932
H          -1.88071195356609    0.83962330217193    1.50680746976477
O           1.40402112734974   -2.16393880709962   -1.58620396237555
H           2.28788682292309   -1.82609431912159   -1.74003775373755
H           0.79221703422643   -1.56401084927381   -2.07363611793907
O           0.51052013956765   -1.98935693503249    0.87622734097754
H           1.00990429602346   -0.63146066307860    1.21893470875003
H          -0.42476686553584   -1.82875888776082    0.71750903485454
H           0.90444515944354   -2.18710211001699   -0.01541538969986
