    19
        -40.91865326
S           0.88241513343865   -0.47130799619916   -0.04612939224260
O          -0.39766471676199   -1.07093404812286   -0.63192269349656
O           1.20581481715645    0.72109791940165   -0.79404993739825
O           0.74649284986882   -0.31161248710923    1.36685566421624
O           1.97761510478665   -1.53051798998736   -0.32799729221428
H           2.24456850034243   -1.42393899199178   -1.27733050231114
O           2.47512958277522   -0.61393756725359   -2.71184742563051
H           1.96673959850155    0.11588115789200   -2.31422848128479
H           3.36278314074643   -0.28243890450881   -2.86961158113418
O          -2.80541116442880    0.95374975460780    0.99785811758940
H          -3.25467188379694    1.06718688970523    0.15876127981634
H          -1.99321984651545    1.50413595247878    0.95388357473634
O          -0.41787982416767    2.19944230425463    0.83170090515042
H           0.01869884175558    1.88214411436042    1.62789856124491
H           0.13408287316724    1.87821504486118    0.10257566492224
O          -1.77124119842740   -1.43867939555069    1.41622427686178
H          -2.30756695554701   -0.60647901095352    1.35973557678890
H          -1.03450924907341   -1.33820807718779    0.15401691995780
H          -1.03217560387856   -1.23379866867120    2.00360677442851
