    19
        -40.92044778
S          -0.35843459907050   -0.58640090158517   -1.44119625459239
O           0.89164560903728    0.15256334975219   -1.59991281522329
O          -0.14632113275727   -1.86076224305174   -0.78272500866666
O          -1.37697283569813    0.22995400924005   -0.80286723050802
O          -0.90086381034823   -0.91505363491762   -2.89154908887506
H          -0.43533388256471   -1.71139695888545   -3.12886947917577
O           1.88029912969942   -1.07617367584292    0.61567764046795
H           1.12314647989374   -1.57281747639061    0.21128382924995
H           2.23680937053440   -0.58371746809366   -0.13584721291623
O           0.67861817351873    0.68985625506719    1.92743041231150
H          -0.26571616118259    0.29324433918225    2.00351069327006
H           1.25723451535184   -0.08046148809698    1.48969020434173
O          -1.65605739104625   -0.27286857888027    1.71707576601443
H          -1.64713628567178   -0.21077051261520    0.72620077085120
H          -2.45335915982881    0.16923366706119    2.01491519112221
O           0.39952397147365    2.17985076871941   -0.08404045452078
H           0.71503330198394    1.52197691523767   -0.75866064544751
H          -0.54950216921179    2.21948450601298   -0.24980634351464
H           0.60738687590951    1.41425913823114    1.16969000581332
