    19
        -40.92135267
S           0.02164775156469   -0.88159646572873   -0.09551583462474
O          -0.62311584928378   -0.10042715874188   -1.17031961425793
O           1.46367636527032   -0.65605180298430   -0.08860046204006
O          -0.59007793616416   -0.58765346295162    1.18246791720315
O          -0.23410557449503   -2.38033801882957   -0.41204575355226
H           0.40118882116479   -2.59603491544167   -1.13241981213393
O           1.23742860130352    1.69903819324610    1.06759086354200
H           0.90790757995248    1.44030906618033    1.93315918672037
H           1.50650279964401    0.85822044225481    0.63340822560699
O          -2.40864301982477    1.27874678478778    1.39390194113279
H          -3.25266730354088    0.92331804179804    1.10896804305481
H          -1.79165061901299    0.50878863993310    1.45919233152067
O           1.86566279135474   -2.44192482293107   -1.98300449978391
H           2.56672306228760   -3.05544202716809   -1.75021613352771
H           1.98686453786712   -1.65237905467379   -1.41989276535174
O          -0.81229136364292    2.19823747278694   -0.36647450939124
H          -0.74532895067478    1.20888781655695   -0.85933081575466
H          -1.55229248581437    2.03308410542573    0.31713696768511
H           0.05257080204563    2.20321714647987    0.18199473395047
