    19
        -40.92120533
S           0.43729997773251   -0.25973680885910    1.28330151249871
O           1.35053430258964    0.43442813060485    0.37481687509477
O           0.01015436511966    0.55189550787905    2.38961416771699
O          -0.63053836225087   -0.91933317358676    0.54952756428206
O           1.29450663783255   -1.45908992198409    1.89739637459890
H           1.70093134707967   -1.08286719184646    2.67238058799120
O           0.61065746213560   -2.23064700533228   -1.34731844999964
H           0.06609199661713   -1.92646563804830   -0.58487839472794
H           1.40127513795798   -2.62212296078805   -0.97136545313232
O          -1.11346138410026    2.31850121073016    0.73735711111266
H          -0.66411986802934    1.72965799863491    1.37443880396662
H          -1.69667556077461    2.87830388257215    1.25425277435939
O          -1.66453384162213    0.70667611325661   -1.30709150136543
H          -1.64154004555209   -0.03971430492613   -0.67879597498195
H          -1.57619152963636    1.49074828796467   -0.72328087070351
O           0.68712681309364    0.24584850941516   -2.00090575129100
H           0.70031370129225   -0.76811283384822   -2.00772341661226
H          -0.34021468648997    0.50925067969691   -1.87230135430834
H           1.06838355700395    0.44277952844313   -1.03942460450878
