    19
        -40.92453601
S          -0.47018855766033   -1.28001869538913   -0.68030882599309
O           0.19799501374037   -1.65940949826177    0.56009163547445
O          -1.65841305143473   -0.48094699058427   -0.40481857504569
O           0.42424938262842   -0.63666846590564   -1.61960480949955
O          -0.95434907156953   -2.61726038500744   -1.36742940276811
H          -1.50172161403752   -3.04495748704469   -0.71529351769479
O           2.30053346868686    0.04902019158376    0.03962120346637
H           2.20148683466910   -0.68938251066494    0.65247696469446
H           1.75149434476535   -0.22084092734608   -0.73698398044926
O           0.74251802017848    1.85478075357980    0.85545966755078
H           0.15436716939968    1.98861848121484   -0.00055903283928
H           1.50424555419597    1.20076269023673    0.56004229772185
O          -0.72294528201132    1.81284723249715   -1.19465306408259
H          -1.25396490918117    1.01695964889079   -0.94100695117680
H          -0.17673542335317    1.49716343712759   -1.92390270301070
O          -0.73038579205782    0.22131390537757    2.08433758561316
H          -1.60056513065848    0.29856943442511    1.67556193036680
H          -0.34945286032259   -0.59222444662099    1.66612739294963
H           0.14183188393227    1.28167362192368    1.49084218474766
