    19
        -40.91503881
S          -1.50951292700419    0.15008350291598   -0.79728659679122
O          -2.77654823225607   -0.48980259472826   -0.87983243860792
O          -1.15649744386029    1.11468030461578   -1.80917997002663
O          -1.22976409094698    0.69314924539123    0.56065224514822
O          -0.39792617505549   -1.01737218798993   -0.95253443223510
H          -0.87661596069869   -1.79379543640033   -0.66898398174469
O          -0.90190390603376   -1.62796136812683    1.74675725864726
H          -1.37752427358400   -1.76598493710632    2.56740024066807
H          -1.17663826934535   -0.75077281745510    1.40475889373086
O           1.66109960054373   -1.22057165816275    1.00200968089275
H           0.82259755012550   -1.49796355623672    1.42897694037924
H           1.57779738776831   -1.50056074167710    0.08396010565939
O           1.35309939713890    1.63617649642205   -1.76015200521236
H           0.39493030178065    1.39069752486667   -1.90378035321118
H           1.44929247711797    2.52960510779590   -2.09701922649914
O           1.16106405608888    1.25815994509868    0.72390256927422
H           0.09907128304867    1.11855888167601    0.71160709670108
H           1.50671841467672    0.30217978498848    0.90596859491508
H           1.37726080050332    1.47149451410296   -0.26722463167694
