    19
        -40.92453853
S           0.40741928174874    0.31175841882586   -1.43507930071737
O          -0.38718469367651    1.43917526847508   -0.96161004205814
O           1.62893813936113    0.17302908097011   -0.64964581565280
O          -0.35495434150204   -0.91752272071003   -1.49734986630289
O           0.84565166855114    0.64183062164697   -2.91625229803909
H           1.33897025831343    1.45445059393987   -2.85176791347789
O           0.85111929648519    1.40491667772605    1.49391274828746
H           1.32386267984572    0.97834967404436    0.73442498087771
H           0.28508460268952    2.06002611275042    1.06897538028057
O          -2.27609799258390    0.06854742360183    0.18489829867536
H          -2.30588829508245   -0.67081109878866   -0.43338473932643
H          -1.69567985896975    0.72845187339625   -0.27050790733493
O           0.69239962682766   -2.12876429285784    0.54726692154353
H           0.26522712217417   -1.87178000710492   -0.30655058237255
H           1.57595700708922   -1.74746774023725    0.48050863487943
O          -0.64298527851950   -0.55976134007974    1.99913020353892
H          -0.02298741296631    0.28063187943788    1.95132843559763
H          -1.43026757458994   -0.33384195650460    1.34703208279918
H          -0.09858421519761   -1.31121846853810    1.51467076880955
