    19
        -40.91792409
S          -0.54428701917335    1.60031000879876    0.02344310604682
O           0.22021384933653    1.18116971037682   -1.14181561249396
O          -1.87030655058132    1.00831474037530    0.06096451265732
O           0.18519084750819    1.38582858921286    1.26203176368429
O          -0.75194370929138    3.16280506078389   -0.13129547481234
H          -1.39553382686263    3.35192773933241    0.54438676418765
O          -0.03999352000143   -0.99089431963540    2.18312995764315
H           0.68162307337985   -1.07320957527311    2.81088122723287
H          -0.02688852351347   -0.03650610451708    1.87873899048343
O           0.36415354653453   -2.09757260848930   -0.03344566385346
H           0.15908598167120   -1.74441957522211    0.93075604406342
H           1.18070929399517   -1.54565809044882   -0.32744454660190
O           2.16352504392186   -0.44797779697924   -0.71346001072820
H           1.50881290626481    0.29579351280136   -0.82211382126468
H           2.65118957826275   -0.50072861563499   -1.53761945137451
O          -1.39787336530558   -1.00888000486714   -1.44508106847125
H          -0.88925487504729   -0.48359728498421   -2.07447469086744
H          -0.43228170422280   -1.74153652480585   -0.63633741148465
H          -1.76614098671228   -0.31516885094324   -0.83124462402675
