    19
        -40.91971868
S          -1.32264707045839    0.18937573897355   -0.47162395693484
O          -1.36170373755050   -1.14670435758468    0.03625241023852
O          -2.48394252953083    0.70175791433641   -1.11900442908172
O          -0.91427110303696    1.17438658071482    0.63071802635751
O          -0.10261245066933    0.25341787735911   -1.46373182472227
H          -0.17213364838082    1.16782059402237   -1.83995529837519
O          -0.89275226063718    2.66693949819698   -1.95272220485136
H          -1.75790883649751    2.23959351355409   -1.82765703684083
H          -0.74871030168871    3.21937065654410   -1.17956928459172
O           0.54747729573342   -2.45050534399469    1.34284911475293
H          -0.20130571094622   -2.06237288081453    0.84635500017625
H           0.27076386541462   -3.33036456357594    1.60232225666106
O           2.22737797799157   -0.81991423902771   -0.23605338364926
H           1.58466739459424   -0.56582977965331   -0.90970572897547
H           1.93059660489074   -1.67083009320185    0.11694276911908
O           1.04265086552700    0.23114594530604    1.88036483111742
H          -0.11490476022245    0.81343997484532    1.20283462619804
H           0.78633648980758   -0.65041634178120    2.19039268736311
H           1.68302189568302    0.03968928581539    1.15099140607083
