    19
        -40.92246921
S           0.63436072850859    0.03845323374337   -0.86088320573294
O          -0.30504371773964    1.09563891934740   -1.08361604101290
O           1.76537539215633    0.38620943314715   -0.03245746927032
O          -0.06064219267412   -1.18316233061406   -0.26535780556352
O           1.13773272494799   -0.48965467571058   -2.22201218462208
H           1.81850287549782   -1.16581756057572   -1.97839590281430
O          -2.84434170848209    1.06314715310152   -0.20058625710200
H          -1.97433816796071    1.22092807032475   -0.61411234956843
H          -3.41912237894486    0.73329206702947   -0.89322765454100
O           0.21799953184559    1.55612142286226    1.84563932852781
H          -0.13570136420246    2.31393150572790    1.37328737079334
H           0.94563291476244    1.21583002296075    1.29741471592743
O           2.72640087434922   -1.99898792261013   -0.82200139602047
H           2.15344802957663   -2.61633321721691   -0.35857501891073
H           2.75379796956477   -1.19090012378054   -0.28407061049351
O          -1.52651206707790   -0.41584144883418    1.56027764247622
H          -0.93809245940681    0.29062011497292    1.92211783700067
H          -2.21816191041973    0.06896062404163    1.05006811297336
H          -0.73129506429414   -0.92243528791497    0.56649088794396
