    19
        -40.91966075
S           0.88473373482562   -1.45755806719383    0.15778254594707
O           1.73760093748640   -0.54748105606280    0.90658079240851
O          -0.30632661432511   -1.81886401202994    0.94179838642415
O           0.53302166720356   -0.96211181108547   -1.14983270393977
O           1.69417354435182   -2.79296293316919   -0.04066352692480
H           1.90360666651906   -3.05080860035116    0.85178612924532
O           0.43298950237054    1.76788733580058   -1.52768038495087
H           0.54949126555378    2.08473501614445   -0.62460364643447
H           0.79339609614734    0.86600336902373   -1.53809441913326
O           0.36261903334875    1.57448138494820    1.31355530747572
H           0.56978561378936    1.93462484754152    2.17794984779572
H           0.97579148983290    0.79438370775057    1.17924715164175
O          -1.79403916731256    0.35497758702380   -1.65601172698039
H          -1.23731994096018   -0.42215048720531   -1.82823184337169
H          -1.16401629420176    1.10559241778226   -1.78400928916861
O          -1.75216289298764    0.17739001466149    0.83223363838638
H          -1.23412561468369   -0.74622305662813    0.93290071942043
H          -1.04863396713814    0.85799353116216    1.08284137670200
H          -1.90058504982481    0.28009081190170   -0.22754836456500
