    19
        -40.92136406
S           0.87296558097368   -0.07075727149880   -1.07475530626627
O           0.73477869423524   -1.18724570590192   -0.12294745711066
O           0.41818398269267   -0.42009343798552   -2.39760210154745
O           0.28206795809893    1.13584910262486   -0.54141970837063
O           2.43546174299100    0.19444299915172   -1.17336988921422
H           2.72126109817284   -0.35835298351512   -1.89519702091977
O          -0.88568182253081    1.04192400081890    1.80255437839483
H          -0.50894175206998    1.36979918067954    0.95410546755810
H          -0.08725991918920    0.72911853876667    2.28249905438513
O          -2.07843979174050   -0.03725416663239   -1.64568245679199
H          -2.10034844578540    0.92248403353722   -1.59549438557887
H          -1.22476205136304   -0.25360061235189   -2.08492591761526
O           1.55284158714937    0.01856559477653    2.13189210701448
H           2.27463318184463    0.59938578984056    1.88549383264696
H           1.37888455461578   -0.54166578350636    1.35212233721970
O          -1.64103457120631   -1.02611951794732    0.66581176098849
H          -0.68478374796904   -1.29603726661157    0.40536418985493
H          -1.44801326291292   -0.13832025624893    1.27609178407018
H          -2.01181301586895   -0.68212222804136   -0.22454067879162
