    19
        -40.91832166
S          -1.37111176176710    0.04431132420798    0.24262279087016
O          -0.80510649054185   -1.36192383443172    0.50160688798637
O          -2.79408987700907   -0.03308472601062    0.19990262605909
O          -0.76310319366347    0.98390420900239    1.13774820085289
O          -0.83731307347609    0.38094391071782   -1.19255537356214
H          -1.30977853732277   -0.26331490690003   -1.77566066170211
O           2.87527076624316    0.19477344000281    0.15601387516883
H           3.71957533217492    0.53577156557763    0.45574594981599
H           2.32583394810911    0.97821207994952   -0.08301741838332
O          -2.41190463173827   -1.52211944587908   -1.99916319427072
H          -2.96805932046592   -1.14178411794989   -1.29883571375065
H          -2.06930450073594   -2.35015005396542   -1.65169731323225
O           1.17958559967099    2.20194288976522   -0.30257034404755
H           0.46986753413720    1.92602352741384    0.30460160119158
H           0.80382203719778    2.11215310499433   -1.18188938712171
O           1.19433414627986   -0.83365837984838    1.91003428060035
H           0.05451942041034   -1.27373444831461    1.08239856981442
H           1.90154973946451   -0.56830256186133    1.26576532199757
H           0.80541285299513   -0.00996357643850    2.22894929158711
