    19
        -40.92021797
S          -0.93646137441367   -0.37916078107423    0.32331134441422
O          -0.49154357468516    0.74033242863237    1.13459191508145
O          -0.32924385030581   -1.63289487336100    0.64011546910402
O          -2.46839207538872   -0.50888104942678    0.47139370137530
O          -0.75097538267821   -0.03897191986870   -1.14384099193504
H           0.29755426219067   -0.07907594733870   -1.45224422147744
O           1.65440270303541   -0.16500979446207   -1.67386498877247
H           1.86235539134196   -1.10120121988163   -1.43207595947576
H           2.01388569007829    0.38344251983999   -0.93843818004315
O           2.07604670946023    1.25444612276168    0.53179276216422
H           2.17895940995000    2.20806282103180    0.53325140392876
H           1.18912810874968    1.06782488316947    0.89445666763499
O           1.76973985733899   -2.62547003852687   -0.71131746786205
H           1.06699859306741   -2.38495261764091   -0.07789483591097
H           1.43729073838806   -3.37393620642179   -1.21033192352523
O          -2.76689365404017    2.04641822592897    0.86613406879313
H          -3.16928427658459    2.28433634469486    1.70509996893973
H          -1.81957951442244    1.88679501045417    1.03940105689233
H          -2.81398775107813    0.41789608149482    0.50046022067531
