    19
        -40.92217251
S           0.13154351211740    1.13744049751413   -0.77208338695184
O           0.50036000195022    1.13501492603955    0.64946043952880
O           1.21839676581137    1.50035005867994   -1.63554537900214
O          -0.57746991619001   -0.07942817893079   -1.12607611226862
O          -0.96944499740694    2.29030971730911   -0.90578817269136
H          -0.48386320937513    3.05430343826728   -1.20261270090395
O           2.51743496620558   -0.52848231780877   -0.43706879050544
H           2.16735448134824    0.16417144741163   -1.02495478112549
H           2.82740049893487   -0.06674371520883    0.34564317270610
O          -2.56550530568179   -0.17188349743276    0.56798203010335
H          -2.89584267750518    0.72085255117941    0.68578120705535
H          -1.98032500509295   -0.14350975086683   -0.22381076109419
O           0.52448457363534   -2.25605903087825   -0.01104717487864
H          -0.00779617325348   -1.80954200291242   -0.69291257428860
H           1.41612342541726   -1.86102393296861   -0.13299834777478
O          -0.42938011159832   -0.84056134574516    1.81193359895215
H          -0.02580521266989   -1.57590056751689    1.14822298534927
H           0.02336776564405    0.03779408993241    1.43982213946020
H          -1.39103339226720   -0.70710239612361    1.51605260833291
