    19
        -40.92343607
S          -0.86175492747630   -1.44355241034011    0.14003859277277
O           0.39315997937999   -2.05803803663369   -0.29557032273779
O          -0.82150216607498   -1.06579302152755    1.53676146512695
O          -1.24922300574446   -0.34112856894466   -0.72580738779209
O          -1.97504499561128   -2.54611574322548   -0.02347063734801
H          -1.67508209915851   -3.23485792071398    0.56144926440285
O           1.03866811205031    0.77112614850179    1.64054640941060
H           0.48010148723000    1.48591269405220    1.26947247547579
H           0.39669106282750    0.04484542583867    1.82565761552427
O          -0.86217830300269    2.08783090087981    0.27325371812692
H          -1.60713325632750    2.44598663543389    0.75783649950091
H          -1.14825245601327    1.20888223492193   -0.06071717571085
O           0.62155160702340    1.04515698344483   -2.03022315043797
H           0.39290991844801    1.90854692487806   -1.66863978419711
H          -0.14392609895371    0.47057400201459   -1.82042386217593
O           2.08043882278537   -0.23800143816728   -0.38600500309250
H           1.66207336248608    0.32544803562827   -1.13686491595130
H           1.78491035560897    0.23685874299808    0.52489018902468
H           1.49359260127417   -1.10368157927615   -0.38218398996697
