    19
        -40.91226052
S           1.25718128492667   -0.30475377241429   -1.26090183327213
O           2.04604172824401   -0.57674413377177   -0.10113907239914
O           0.54513107339501   -1.55983065356822   -1.75466610661633
O           0.35127679294963    0.80192321541164   -1.17529133602194
O           2.23245304632999   -0.01861300759696   -2.45858125750439
H           2.95236476213223   -0.64033156301706   -2.37632380400557
O          -1.12767970258696    1.12584751656441    2.47759597831909
H          -1.44717811653854    1.93817461780307    2.87314050664644
H          -0.21109109508521    1.30891593358049    2.17262250484499
O           1.22703142121194    1.63839626428763    1.28408229418271
H           0.87266235528248    1.73847052398814    0.39007645553389
H           1.75125654874846    0.82848527775893    1.23114555049355
O          -2.04662888694028    0.29319254161737    0.10293946081090
H          -1.83745103979158    0.56533190376544    1.02560570791073
H          -1.34651654323635    0.67838218902523   -0.44563661629750
O          -1.31422711677594   -2.13992870612196   -0.20869086189124
H          -0.21699631935258   -1.85375490278074   -1.08884927280679
H          -1.68193874217574   -1.21566010230450   -0.00337336766353
H          -2.00569144075067   -2.60750313225031   -0.68375495026715
