    19
        -40.92021799
S           0.43000696694035   -0.93675437529749    0.24907190448408
O           0.66771300711954   -0.57971780212335   -1.13854328713757
O          -0.86761806496528   -1.46878235793244    0.52131601432320
O           1.49771484102870   -1.96804627920255    0.67595385418252
O           0.72379905895082    0.26196412364396    1.13180151237654
H          -0.05705767799674    1.02592113898966    1.07184210399644
O          -2.88962936565860    0.01952181623997    1.47702683936607
H          -3.02820207245130   -0.26597431972673    2.38202937880753
H          -2.29771978848595   -0.64085466643058    1.06905315464316
O          -1.11487549812380    1.88544080773201    0.87647218184876
H          -1.89670195453763    1.34519996809400    1.15073807582619
H          -1.15796808998795    1.93151130334899   -0.10683778104191
O          -0.88304894152319    1.52865714947678   -1.74571438269191
H          -0.36567814688602    2.10385017518297   -2.31263897996675
H          -0.37622844991671    0.69986340544115   -1.64971132416675
O           3.26628341961555   -0.99564499361702   -0.96747686712338
H           2.33807219132322   -1.67943977565630    0.24048506954616
H           3.59560275420508   -1.61450929936735   -1.62392414422504
H           2.41553582135052   -0.65220602879443   -1.30094332304561
