    19
        -40.91620986
S          -0.00478521230573   -0.89830509619800    0.61079732593289
O          -1.05172130914579   -0.57405360546387   -0.32295862170788
O           1.34710821513894   -0.85924615511822   -0.07947718936187
O           0.01695967762186   -0.08826187377281    1.79614732702839
O          -0.13382844844203   -2.39996582689696    1.01901216723478
H          -1.00078746347483   -2.46685326773635    1.47014658514730
O           0.55902418477002    2.13661204578545   -1.84767268630501
H          -0.34738844887650    2.44732330415813   -1.80840094253589
H           0.89524936995355    2.17402650754971   -0.92656107804556
O           1.33606205258420    2.02313460260307    0.73347053599833
H           0.81868850312976    1.36713878300838    1.23147309456931
H           2.25385350176766    1.75673596901732    0.82155084387884
O          -2.43335295704198   -1.48803947009636    1.92106045304464
H          -2.55597242033482   -1.07507334056002    1.05768863049142
H          -2.02300596605270   -0.81886718212917    2.47906312190563
O           0.66569258509346   -0.42741207684186   -2.42538646954638
H           1.19199057857353   -0.74517780866340   -1.12500414545949
H          -0.25705713598361   -0.62811508407929   -2.21501823084576
H           0.72327071307826    0.56439956538069   -2.38993070143296
