    19
        -40.92174075
S           0.40496818360265   -0.14795068156537   -0.78601775091944
O           1.60483421296499   -0.32810333451179    0.00374881261227
O          -0.67376813120945   -1.11047693931890   -0.32470429275858
O          -0.09520594479356    1.19526630603297   -0.81264562078372
O           0.69501447563263   -0.60088315783546   -2.23346474496373
H           1.27495136559206   -1.40199663270701   -2.15392886155818
O           0.57479858685701    1.09770997644377    2.06124668268736
H           1.13371677938272    0.57770873959475    1.46049797684260
H           0.45021321506990    1.94856289472390    1.63256285560507
O          -2.51505548454850    1.85612726501434    0.16253655899420
H          -3.16722458263868    1.78231361122443   -0.53613990874675
H          -1.64130149301404    1.77427155070367   -0.26471221329883
O           2.40234792755595   -2.39243491267528   -1.44994144336404
H           2.32452010647504   -1.82376529373289   -0.66164425122329
H           3.30539151931557   -2.30915050425112   -1.76662916781546
O          -1.73163418150545   -0.16780916094010    1.69898467430098
H          -2.23645183331031    0.57354426640492    1.29152268095896
H          -1.17539946783263   -0.77908942803423    0.58210164463732
H          -0.93471526359422    0.25615544542926    2.09662636879279
