    19
        -40.92071436
S           0.40790859779133   -1.42171521292210   -0.09895773869148
O           0.47660059942332   -1.99208042460464   -1.42467549422270
O           1.33247910794190   -0.28041007774425    0.05118912708285
O          -0.92569293608802   -1.05127959512086    0.31500070026782
O           0.92881754635956   -2.52738682453220    0.90218966995017
H           1.56979745523204   -3.01413821277245    0.39189915199943
O          -1.17729247717914   -0.21520868396249   -2.40342426034925
H          -0.54685750950926   -0.95241045820626   -2.22354625075775
H          -1.98273731126124   -0.45673728159105   -1.93664405512570
O           0.95386015268317    1.14151686764100    2.29400991797004
H           1.73347040152164    1.67042567301538    2.46967481203450
H           1.18955303927116    0.52747372961843    1.57034554115259
O          -1.36938101696666    1.43961797014098    1.02438533190279
H          -0.67729383017093    1.53807208769753    1.71201693775202
H          -1.44813636175894    0.46390419971657    0.91437821807158
O           0.00520744401824    1.56480843748711   -1.03009874120590
H           0.70214633321697    0.90920196901122   -0.65891876857070
H          -0.51215930420918    0.98487889090019   -1.70643099459667
H          -0.66028994050713    1.67146695623330   -0.16239309470990
