    19
        -40.92343517
S          -0.35050208777232   -1.43021121155835   -0.82330979787144
O          -0.57779579912437   -1.96855111199504    0.51854162284737
O          -1.46537103797423   -0.62742853788008   -1.27907522662472
O           0.91868346956406   -0.72549128002105   -0.91112742308144
O          -0.23373717454468   -2.67193761112945   -1.78574837674579
H          -1.08856848867164   -3.08271262566022   -1.70184958757562
O           1.95754331845191    0.42223418175711    1.26300695012053
H           2.00933667574987    1.31476746110617    0.90364983834933
H           1.81611435017920   -0.15734236936684    0.48574034071111
O          -1.51054776734949    1.38850657867350    0.38849850483290
H          -0.75853470773283    1.86335381975457   -0.02322373792580
H          -1.72161651924768    0.67627955731197   -0.26112739411158
O           0.75624718051589    1.92383260092572   -0.95012381478588
H           0.69068166110834    2.30898137092284   -1.82506195023005
H           0.83706744815972    0.95337901995140   -1.08225668305921
O          -0.40173804224905   -0.05474002645699    2.09104581686826
H          -0.51916459771306   -0.94757210006987    1.55879006749252
H           0.58908381045179    0.17623542005992    1.94623158528408
H          -0.94718171175579    0.63841686362946    1.48739927550306
