    19
        -40.91904959
S          -0.19822982923633    0.61122139890147   -0.97570235565311
O          -1.47065902395302   -0.01757993261450   -0.83621910743596
O           0.06462171222271    1.73396385021289   -0.11090075279224
O           0.92780790948018   -0.41699743918721   -0.75432358018438
O          -0.00081607458063    1.05230861930127   -2.44737838767259
H           0.87134287158112    1.51915853128682   -2.45755701092960
O           2.25497928101338    2.08139968883508   -1.64670078355763
H           1.70087220717851    2.28683183607940   -0.87682728119887
H           2.80233786859849    1.33217164305426   -1.39583145259315
O          -1.42945143560525    0.70599061841247    1.92281488369572
H          -2.21386253308565    0.55645310128163    1.38761553279273
H          -0.83612794402903    1.22552383105945    1.35711745910967
O          -0.47099900116856   -1.77433836734921    2.31509448994262
H          -0.85277992403758   -0.86926560151693    2.26456641235819
H           0.32911488624195   -1.70283183603056    2.83761943127639
O          -0.36708035840752   -2.47624667100625   -0.22457741015249
H           0.49347643885608   -1.35591035969845   -0.57304607795104
H          -0.40540774269367   -2.38450410766403    0.76224447876882
H          -1.19913930838672   -2.10734880342826   -0.54800845778696
