    19
        -40.92136404
S           0.08928923948912    0.34858207657791    1.33908114676588
O           1.15013153347978    1.19098392452366    1.83283980290524
O          -0.76142828199445    0.97861487708468    0.35475484033311
O           0.58731784427049   -0.94865739850676    0.84832452805885
O          -0.83752554032061   -0.00904524764328    2.57785999760759
H          -0.24823938567225    0.01743071169689    3.32639884623473
O          -1.13197644170485   -0.21742357540361   -1.94645639115174
H          -1.19679448948767    0.41917751372636   -1.19807876724159
H          -1.49671358208352   -1.04217335072054   -1.55584921891868
O          -1.70159566855350   -2.01423354944704   -0.06309637492800
H          -2.38894955518403   -1.75433229593213    0.55260591335417
H          -0.85545510991907   -1.77741333449111    0.36140319009991
O           1.76513939383301    1.87305790367992   -0.63712664149117
H           1.69809742523125    1.70812654891028    0.33081594935556
H           1.03014415079353    2.45667494953923   -0.84507879037528
O           1.29338928033903   -0.47709808073407   -1.51270145043613
H           1.60246395126151    0.48142975039779   -1.32787004974370
H           1.13972172015474   -0.83565457001887   -0.56285371942281
H           0.26298351139689   -0.39804683983743   -1.87497279424171
