    19
        -40.92175620
S           0.03680740444991   -0.75797750494244   -0.72836903110610
O          -0.28646090814664   -0.96419262264148    0.77834826233638
O           0.23469407563093    0.65479503117977   -0.95884112653673
O           1.13362005610495   -1.58305651246941   -1.12097745352874
O          -1.25278488176381   -1.22987824041418   -1.38919051252445
H          -2.03877154330945   -0.82971316631504   -0.86324328402379
O           2.93778609789789    0.29148828567891   -0.41733407422286
H           2.61431072412538   -0.50498965079635   -0.86907678650324
H           2.31726079479648    0.97990336586562   -0.68274692155938
O          -1.76200710414801    2.16801820712924   -0.09406724239195
H          -1.98488969271849    2.79490867014174   -0.78492110034237
H          -0.94195497802837    1.71591887327588   -0.38510717061854
O          -2.99320724728523   -0.15314882738328    0.09943643679231
H          -2.68951068457822    0.78924711773879    0.07671978049440
H          -2.72859075223616   -0.49566803081543    0.95805249222070
O           1.97206880002271   -0.55231657178768    1.88412548235785
H           2.41252479358078   -1.38645548934092    2.06348004122782
H           2.45804550271021   -0.14023593466424    1.12271169988720
H           0.56105953277878   -0.79664698940809    1.31100051800360
