    19
        -40.91628482
S          -0.38663066827725    0.63414803797294   -1.05227366560067
O          -0.70972088177177   -0.77435675591576   -0.98381253103362
O          -0.66309816020657    1.26592155692492    0.31581666499197
O           0.93606934305013    0.94500958975048   -1.48729223940166
O          -1.38703160567816    1.33687861093887   -1.99924943545206
H          -2.25614474636619    0.87433959044026   -1.88962506087877
O          -3.25958107451155   -0.41755520078956   -1.57014635917617
H          -2.45269368597315   -0.86908067465998   -1.25754207725114
H          -3.57552138382146   -0.90346577468025   -2.33569407090981
O           1.96503397906142   -0.71779953485406    2.32268530751759
H           2.37137150215835   -0.27184728839588    1.54557626531668
H           2.18325890682622   -0.17433682273877    3.08201000126893
O           2.97865158713080    0.56893216860890    0.20648219811791
H           3.64402746636790    0.13392927015850   -0.33042554760092
H           2.25575453317483    0.80573887579959   -0.40595196154020
O          -0.60832301619074   -0.77080822824926    1.76295321221154
H           0.33836149269014   -0.81844099209497    2.06049044105596
H          -0.69784706137283    0.50334234083026    1.02219302059511
H          -0.67593653634541   -1.35054876900059    0.99380584773361
