    19
        -40.92179437
S           0.51331556576753    0.81169490712602    0.05261543067154
O           0.72246793873565   -0.33112526063596   -0.97957093316364
O          -0.62472098747643    0.46469229621223    0.88034314918231
O           1.71884477256899    1.05187598179422    0.77091949453795
O           0.15721984829380    1.99573060789751   -0.83962406238601
H          -0.50851587060275    1.66047286747531   -1.54843417378725
O          -1.42947567598035    0.89929303555573   -2.47457940455976
H          -2.09759458144436    0.52048052886662   -1.85006522589488
H          -0.88971962823354    0.15794892078744   -2.76476725322237
O          -2.84471828727114   -0.08465106046041   -0.47982356931521
H          -2.07865899979862    0.02447412622233    0.12028738811116
H          -3.57343228987368    0.39292795381675   -0.07892350021811
O           0.86412267128154   -1.07504832925295    2.53457858962207
H           0.15785326308175   -0.59553839240414    2.06939901791819
H           1.39234812031312   -0.39508327385141    2.96106742659721
O           2.32199653946690   -1.72409472860922    0.40552046509144
H           3.02962852045583   -1.08148740481671    0.51552354740492
H           1.80847467580145   -1.69614953169365    1.24948212795674
H           1.36056442505327   -0.99641324408510   -0.54394850454780
