    19
        -40.92021790
S          -0.39355251339448   -0.59717565229039    0.78471767816626
O           0.66945825884784   -1.27461211034926    0.06302674725554
O          -1.66913666792242   -0.61995552036797    0.14176503161522
O          -0.52149038698718   -1.24277617681072    2.18198682209714
O           0.03738366150618    0.82545999322861    1.09076628580082
H           0.01024908429499    1.46956577216809    0.20745877611967
O           1.20588915849548    0.12505391625288   -2.16716904868101
H           2.15675972386228    0.10287284859973   -2.29059863111006
H           1.00191222861540   -0.50287152925427   -1.44810189324055
O          -0.07018513231947    2.13864101812095   -0.99422710326935
H          -1.02097596120482    2.03405570987156   -1.24560789666656
H           0.42900828222905    1.53684738292096   -1.59368015856976
O          -2.58671396027507    1.41156051650404   -1.35758655302150
H          -2.38225333145514    0.56682112567685   -0.91324283844565
H          -3.30089141222957    1.81229795239840   -0.85845658012882
O           2.00611936094509   -1.85790464131249    2.26017869274848
H           1.82889757604596   -1.69464218243062    1.31414416112647
H           0.40415995924790   -1.43836232341959    2.47202891886393
H           2.19536208170094   -2.79487608950356    2.35259758934029
