    19
        -40.92021789
S          -0.63117622371677   -0.82611205073067   -0.21572919911606
O           0.31413463167042   -1.71696988119369    0.37887491689041
O          -0.17164341796669   -0.15943050420934   -1.42148214712855
O          -1.91895095981652   -1.60925024515577   -0.55327140444074
O          -1.10224937645816    0.21488214626087    0.78305649792636
H          -0.27182036254785    0.74958262998659    1.25188292941499
O           0.87931598658593    1.33037627120357    1.73840336696196
H           1.35996964134634    1.55271720974392    0.90761642809630
H           1.36803711380151    0.56520129401468    2.13040687650491
O           1.78320983929847    1.55777330169472   -0.74978947885474
H           1.16912163995499    0.88390507667394   -1.09859679928355
H           1.66266902034265    2.34383403331313   -1.28595493160986
O           1.90207556412496   -1.00939901723550    2.42718486998835
H           1.58277984906638   -1.49016171526750    3.19309310188057
H           1.45977907359994   -1.40437381997835    1.65180745324943
O          -2.60617803081581    0.08544566785949   -2.40513205542859
H          -2.42473957371712   -1.03493909656462   -1.18059840064908
H          -1.65483785126542    0.25493586460145   -2.26682195793619
H          -2.69949657348804   -0.28801715501670   -3.28495007646155
