    19
        -40.92179433
S           0.43059713118295   -0.34942739576194   -0.78532206790311
O           0.16951013457649    1.15255151622662   -0.48400250431830
O          -0.03642167088190   -1.12124368738162    0.34897163368302
O          -0.15648335190632   -0.71011204680769   -2.03122817041411
O           1.95255726526879   -0.40831223086394   -0.85489261362188
H           2.32071892829272    0.14741915593176   -0.07142128619512
O           2.57684703447218    1.03902450627159    1.12192207816141
H           2.06550748567671    1.82903150696126    0.92312938975086
H           2.08780935692927    0.57449052770850    1.84649406740030
O           0.98971363924558   -0.36935146032055    2.68631508109940
H           0.49526973027901   -0.68641674074560    1.90285747191453
H           1.28678572765841   -1.15202137005063    3.15441210147481
O          -2.59396119465880   -1.14517682668435   -0.53602548986741
H          -1.76413552817670   -1.24427661299891   -0.03932777394385
H          -2.49547703673427   -1.71012943280452   -1.30710518340069
O          -2.14092121134419    1.28758312905063   -1.51415826482270
H          -0.76100302305868    1.35904569767648   -0.84600441868924
H          -1.91896343605998    1.03763923147749   -2.41639255812757
H          -2.50794999073102    0.46968254310620   -1.09822151214975
