    19
        -40.92158947
S          -0.16659544441593   -0.80353251315966    1.22673271221995
O           0.37852669492815   -0.30728739665294    2.46102343830954
O          -1.16809768081639    0.05096867551026    0.60629292813206
O           0.87677368976645   -1.16262439997925    0.25756827017136
O          -0.93055316819181   -2.14946771836974    1.56798247706472
H          -0.42215397733194   -2.53191034111119    2.27664966821182
O           0.16416632576590    1.99513912575430   -0.64338024248629
H           0.94304996566287    2.01074465419199   -0.03795859531960
H          -0.52834887889191    1.55855812361382   -0.10903690827492
O           1.99960455933881    1.34225422703812    1.14061649924295
H           2.63635706324931    0.70786455990739    0.80317775843479
H           1.45168681856500    0.84387776080990    1.77791976282549
O          -1.96949148949355   -0.69320666370250   -1.77261871083621
H          -1.84158291475180   -0.52793135820850   -0.80871791317052
H          -2.67264040282977   -0.10775239655523   -2.06104455052803
O           0.51093730570080   -0.09675603875495   -1.94881869529708
H          -0.44986667143580   -0.37958562228958   -2.11635854574160
H           0.42962018215959    0.89077095828080   -1.54038757525539
H           0.75860799302682   -0.64012364623201   -1.07964176773387
