    19
        -40.91285607
S          -0.39047444974694   -1.47465222386896    0.77528131595160
O          -1.21867627471491   -2.00704089866277   -0.27016105585316
O           1.04152954821221   -1.50238393552661    0.45136145503380
O          -0.77927971498058   -0.15324820976041    1.25617573061495
O          -0.56893847187594   -2.42717078036093    2.03253696152031
H          -0.58051556078746   -3.31286528424652    1.68064070700942
O          -1.07572258609098   -0.51976365861985   -2.48809949912568
H          -1.08527391956735   -1.14912346220909   -1.73937553516930
H          -1.87554810945956   -0.69050525483185   -2.98903094492353
O          -0.85229311271897    1.58736066939919   -0.84581758799875
H          -1.04341153286317    1.04914759220563   -0.05910507934977
H          -0.91853634124988    0.95927447116904   -1.59585622247793
O           1.59058120518723    2.25529612955377   -0.37343751588943
H           1.59853925155148    3.18520726403509   -0.13848158464978
H           0.65307686669416    2.04450649330915   -0.68246736730465
O           1.59156411275174    0.60879596147766    1.51626489901860
H           1.60523931333433   -0.35133422700292    1.03168488834932
H           1.70820923866111    1.32195291617828    0.74337659364131
H           0.59993053746359    0.57654641795793    1.69450984162588
