    19
        -40.91503718
S           0.24644698839518    0.92445933090001    1.42393008355490
O           1.60867432909964    0.55480675351926    1.71947447220094
O          -0.48156024585592    1.66724413285739    2.39350814682516
O           0.15041836787849    1.51133703821307    0.05950119953518
O          -0.52737611634202   -0.48931908731005    1.26103138783905
H          -1.40293407119298   -0.27764173827959    1.57737318241396
O           2.45243109002521   -1.25714356630724    0.11439890979168
H           3.40352170881823   -1.14396811085983    0.05517643496700
H           2.14705415302803   -0.63830082669336    0.83741326677856
O          -2.36619067650406    0.89261075434967   -0.37968920016648
H          -1.48756057229394    1.29168026206814   -0.20475663668005
H          -2.92054333645023    1.58950738479057   -0.73417854016042
O          -1.25470353317573   -1.36476387860285   -1.34607048649976
H          -1.82770061322234   -0.59893793921068   -1.12539134006701
H          -1.09849003170491   -1.80848302742253   -0.50527237504122
O           0.95978946206540   -0.13865918075715   -1.58034629172520
H           0.67110229386533    0.66244733419289   -0.93229087619553
H           1.63258753891515   -0.67400315793021   -1.00148457700042
H           0.09503328470677   -0.70287248750895   -1.63232675044198
