    19
        -40.91955644
S           1.27212229619072    0.17044608543125    0.95673830527913
O           0.92026472387811   -1.25087058061335    0.94331102623352
O           1.47265117004348    0.65484606489496   -0.40752349878739
O           0.34202704399077    0.97588299761149    1.70406295288816
O           2.66974697087865    0.26519322029737    1.69164179776089
H           3.19013691885150   -0.43464726675437    1.30813188329093
O          -0.65305392754360    1.97171875924492   -1.09872669796698
H           0.20189598402376    1.59922173320075   -0.76086101433270
H          -0.44728441662061    2.47065210035870   -1.89133475108739
O          -1.68291616741924   -0.60883074599683    1.48870712653370
H          -1.06515248553318    0.13179583000654    1.71777607080186
H          -1.11188077799504   -1.38672028258758    1.54594517388489
O          -1.92234342952455   -0.21775486314879   -0.97260982488271
H          -1.56061685616800    0.73658786527941   -1.07027388850559
H          -1.95950650181351   -0.38848118487794    0.07501106173816
O           0.18966650312873   -1.47738869097037   -1.51591107342431
H          -1.13123285789050   -0.82259878099292   -1.29982357768168
H           0.78943870881782   -0.79310583462504   -1.83891266335759
H           0.48603711067696   -1.59594640579090   -0.57534841835041
