    19
        -40.92179429
S          -0.93977650503477   -0.01055672891566    0.20536835988579
O          -0.32487279673801    0.03334441404515   -1.22104628336591
O           0.14827938745659   -0.09043898892857    1.15959811163763
O          -1.81765034154251    1.09379891272399    0.39665237074293
O          -1.70628630642280   -1.32857314295217    0.18931102161224
H          -1.10219738746033   -2.03295928374212   -0.25431756726537
O           1.84074192396143   -2.10081486837103    0.73875097144609
H           1.33286617721585   -1.29079514696582    0.95028767619805
H           1.98767973933187   -2.55328382431169    1.57152061881297
O           0.54003764608824    2.58691250988181    1.15738659580714
H           0.57928750286061    1.62537832755251    1.29557036161144
H          -0.26714060746289    2.87183768412192    1.59386502861036
O          -0.03479730913588   -2.83618313081665   -0.96243374174509
H           0.75058769368101   -2.72014016975488   -0.37130585668897
H           0.14859855992120   -2.31543850349737   -1.75004976847870
O          -0.14215632958585    2.55272585452234   -1.41389165873058
H           0.26024367442241    2.71431419287218   -0.52571291593753
H          -0.18171780417984    1.01862470726985   -1.44065794303832
H          -1.07172691999377    2.78224718589950   -1.31889538111819
