    19
        -40.91426457
S           1.18810983558714    0.61465768137117   -1.10147798877401
O           2.21389102358286   -0.37510535656874   -0.99948183243068
O          -0.02211843756184    0.03556703711115   -1.81070167299048
O           0.79374845032472    1.28785172264915    0.09782409792539
O           1.70770123029317    1.72874900272420   -2.09281031134909
H           2.20503244802124    1.29090867423133   -2.78044518291669
O           1.41469612712051   -2.30825081630512    0.73784291037208
H           2.19305403784439   -2.66515710332104    1.17008297590512
H           1.73628607894575   -1.70614867471842    0.04514611954701
O          -2.65166282301543   -0.33446213430807    1.00985299849553
H          -1.76568036633702   -0.50321060439803    1.42138219839618
H          -3.23552618640758   -0.07508627138174    1.72424005823133
O          -0.19764225974248   -0.49288755797099    1.97343314173096
H           0.27448632760256   -1.28658380592476    1.65933144472190
H           0.22134945801516    0.24611728651866    1.50918103868505
O          -1.79854026375795    1.38824897325285   -0.75277196631142
H          -2.25605486418626    0.73462962919934   -0.14861109071701
H          -1.14996940382602    1.84513006719329   -0.19964006872190
H          -0.87116043250254    0.57503223064685   -1.46237685980108
