    19
        -40.92179438
S          -0.18319751287417    0.57645529841732   -0.74773148790835
O          -0.88601388732886    0.57073290845408    0.51970632122719
O           0.96177626838222   -0.47098039355698   -0.66627066567342
O          -1.00339992822204    0.32096150337254   -1.88304248082602
O           0.58289408313031    1.88549653266188   -0.90434541572781
H           1.36772037569175    1.86630553304689   -0.23977601203550
O           2.43585080237996    1.55637564659746    0.78428478859606
H           2.77611138486722    0.70325886722485    0.49882421238135
H           1.90667977008579    1.37764373078320    1.60147950958762
O          -2.43406194461318   -1.53428608093865   -0.18597313297364
H          -1.98517682627108   -0.80006511537094    0.26624173331025
H          -2.97638690467264   -1.12046375208739   -0.86264823846670
O           0.67078292209108    0.94577241218725    2.64524225198013
H           0.26351888895707    1.60698709968424    3.20808576397367
H           0.01352832396699    0.72932771091164    1.95241564101373
O          -0.34702901479705   -2.44639484079720   -1.56184242556267
H           0.56920957524879   -1.35108926210819   -0.99900676013498
H          -1.15070043917872   -2.32281745072607   -1.00025918692382
H          -0.58210593700029   -2.09322033757315   -2.42538439552011
