    19
        -40.92246926
S           0.30592146968544    0.47735684534485    0.90773241477259
O          -0.27932736980722    1.13133266255815   -0.34137096117225
O          -0.75412609314835   -0.18435046210210    1.63220758836120
O           1.42145625153873   -0.35308856687602    0.56777597026820
O           0.80464872462473    1.69117509230272    1.72177656767373
H          -0.02558510117583    2.17260142403970    1.96489387411961
O          -1.70959435569785    2.30836578873164    1.96401506328499
H          -1.77251480321348    1.34204947871993    2.03729958899496
H          -2.00424160741065    2.53454425817159    1.07732888245862
O           2.12015323937308   -0.98035221058549   -1.95167944274822
H           2.02393164811794   -0.82821752198222   -0.99233230666765
H           2.79484833281927   -0.37189130236459   -2.25751875264958
O          -0.80105927224188   -2.28623947108122   -0.06131660461764
H          -0.93381786357646   -1.65398744604601    0.66572353859684
H           0.05512806263891   -2.69219037817844    0.09567872807419
O          -0.50018349476998   -0.59965510713949   -2.08111707419065
H           0.44832853585376   -0.77834809469287   -2.28562708809191
H          -0.77775589127501   -1.34676072191386   -1.49724870787591
H          -0.41621040666375    0.41765571794959   -1.16622128470927
