    19
        -40.91905003
S          -0.45542209479004   -0.47684191918032    0.96403565145817
O           1.00450277317840   -0.01742823254772    0.78536864075742
O          -1.33998668309646    0.63194285098597    0.81538369210662
O          -0.66935965724025   -1.59469170405431    0.07957999603085
O          -0.49970129571961   -0.97797204116289    2.42881706794294
H           0.09295355796463   -1.77006891480225    2.44394965839001
O           1.12771877428892   -2.85578195353248    1.64650318893463
H           0.55881402319999   -2.79671767435586    0.86230724556218
H           1.94789542272162   -2.40756501566610    1.42226615424789
O           0.37044074359317    1.82077584712330   -2.29647108826225
H           1.07241239226366    1.41831021924461   -2.80980653061044
H          -0.36290213182818    1.16589997651757   -2.26478887774749
O          -1.56178949023081   -0.01408600690194   -1.95241019100481
H          -2.21286464368474    0.45024590832003   -1.41885211539626
H          -1.25113094829241   -0.74130720222018   -1.38981298222080
O           0.71241685377967    2.39736466664815    0.25373875583388
H           1.01096588603471    1.01719632672819    0.60584272976059
H           0.65878462779664    2.33448680072924   -0.73457688002831
H          -0.20374808997553    2.41623804808261    0.55892589426547
