    19
        -40.92453847
S           1.40656951600348    0.44277192366203   -0.38462787598607
O           0.49468237295124    1.53215578413703   -0.71630616341894
O           1.41467318517335    0.19389222540973    1.05229037909215
O           1.14320906313651   -0.75490880357752   -1.15428425135479
O           2.85926251499558    0.91898530928314   -0.78176764673560
H           3.01445927136553    1.69968616946763   -0.25799694085736
O           0.08870405315180   -2.04279801848695    1.01871625832482
H           0.43081082826453   -2.39428628492927    0.18851871109657
H           0.67095883173250   -1.26275106259526    1.19783777977673
O          -1.28322442656516   -0.21072724133114   -1.90258813613375
H          -1.18856771541137    0.74819803580231   -1.94784767850682
H          -0.35235220099203   -0.52986242940616   -1.80649144385553
O          -1.99286180064613   -0.73642785446007    0.45789996336473
H          -1.84079529181347   -0.56318130932907   -0.56340087683919
H          -1.22369903652934   -1.38878754160989    0.73839428400835
O          -1.03336226519076    1.40582861136564    1.37331773029231
H          -0.50961241552468    1.63480153118026    0.56371739334557
H          -1.73857369852155    0.16896655051575    0.91444302261431
H          -0.36028079556477    1.13844441487619    2.01017549173332
