    19
        -40.91426457
S          -1.29457209361003   -0.39574867139975   -1.08192343682686
O          -2.39606095526968    0.27885776355573   -0.47040359627341
O          -0.32969532099205    0.61637204734486   -1.67144686108345
O          -0.59088343634925   -1.36377257142673   -0.29781794933371
O          -1.85527553538681   -1.16094493889277   -2.34446617859856
H          -2.52930722809442   -0.61016393320309   -2.73713543026126
O           2.73511192819990    0.44942208784549    0.69356794206554
H           3.47559545764808    0.06775615127287    1.16745458675692
H           1.93310510789163    0.28910088164473    1.25372039309887
O           0.51746267435028   -0.21454513742450    1.96550966561354
H           0.11174405593806   -0.80491448462760    1.31432150157318
H          -0.10269705529461    0.53404502142582    2.04633429264709
O          -1.52000892016897    1.58107590773935    1.75016729310478
H          -1.89360502441083    1.21587072944980    0.92984019613558
H          -2.23648606133455    1.60536812597885    2.38746382789245
O           1.77549286035917   -0.65976206587802   -1.46303277352664
H           0.63232330911242    0.16036921150120   -1.67445847961098
H           2.25705092202377   -0.19024185283526   -0.72197872770920
H           1.31070531538991   -1.39814427206757   -1.04571628565794
