    19
        -40.92453788
S          -0.88464661097492    0.77282964078058   -0.97108694280000
O           0.24935100027500    1.63131526540276   -0.64906742929304
O          -0.44003906831366   -0.43974812222157   -1.64940745558115
O          -1.71309160576848    0.49191229864487    0.18261817756894
O          -1.79335744413662    1.56483071106223   -1.99174058325891
H          -1.23429967139826    1.72501041691766   -2.74648768340732
O           0.27732692699226    1.21379140920402    1.91702455297497
H          -0.67388420578125    1.13082642075565    2.05268084460573
H           0.35034397821312    1.54569991427347    0.98729576563182
O           1.15533963771533   -1.10621520102556    1.47151901577885
H           0.84833053350125   -0.15945254429085    1.79721486820444
H           0.27320629697267   -1.59242397515292    1.18822030424389
O          -1.02630291420243   -1.98370453874572    0.56311749840125
H          -0.86314224056871   -2.21599882240261   -0.35859347440783
H          -1.47687707016719   -1.10557007960121    0.50439768635911
O           2.01213191903312   -0.47138845340897   -0.81100689457482
H           1.64858688504268   -0.91864018532344    0.56886015825401
H           1.14159045517472   -0.56585617260708   -1.27518154602828
H           2.14943320832172    0.48278201762353   -0.78037685264387
