    19
        -40.91836649
S           0.09903736674033    0.45752701528723   -1.91630304128576
O          -1.06322873393385   -0.32295373511628   -1.55922933381861
O           0.06684627582984    1.81255296120163   -1.39730750788179
O           1.35510338221263   -0.21676311229871   -1.55209085094203
O           0.11281660762722    0.56801109282408   -3.48993217438752
H           0.81864540277349    1.18822238552675   -3.64570629050677
O           0.03558950179719    1.58527563919824    1.18785508481864
H           0.02701611275157    1.87389952316855    0.24012904580993
H          -0.77355292872462    1.05867983465917    1.29761434167541
O           0.16493755371217   -2.01072441306268    1.81161974265678
H          -0.64968746695086   -1.56507682796352    1.48866765841433
H           0.09894710819268   -2.06219709849567    2.76694508361203
O          -1.80841195999542   -0.44761006577862    0.89743341897895
H          -2.75030528253554   -0.62610622262019    0.90571427220893
H          -1.55292565737792   -0.41835931447468   -0.06690164864965
O           1.75348669065383   -0.20918290247237    0.87674456230304
H           1.12850264231880    0.60885199905789    1.11675229738321
H           1.26306020142502   -1.02289720199838    1.23009896409722
H           1.67412317348506   -0.25114955664239   -0.19210364448796
