    19
        -40.92453841
S           0.75614014808809   -0.01923687730219    1.32305322976262
O           1.74139251130036   -0.10315929029177    0.25047268967928
O           0.03182772120816    1.24511136295486    1.26251340651713
O          -0.12841462797029   -1.16499283173397    1.35508324517911
O           1.55418780516592   -0.03245964750186    2.68603449193956
H           2.11669463947730    0.73571212583125    2.64919060573293
O           0.67353699196493    1.59655702045306   -1.38868684541036
H           1.24381877934736    0.98670915590677   -0.85461290776913
H           0.30862062606785    2.19940600949493   -0.73025115297184
O          -2.22981728829728    0.30156949389186    0.39293857329235
H          -2.21774284706497   -0.54143440969812    0.86092785170411
H          -1.48035656908556    0.80376286641325    0.80010614776929
O          -1.14179335910830   -0.08923137207140   -1.84685315245100
H          -0.42126114390205    0.66721517431927   -1.80658608995436
H          -1.72625284671657    0.06882280606453   -0.99272085320419
O           0.26489557966641   -2.02825311012618   -1.06271413162017
H           1.18374443945674   -1.74805491362260   -1.14971504394918
H           0.07796452157613   -1.91096327029580   -0.09896291153073
H          -0.60718510088115   -0.96708027516712   -1.64921715506215
