    19
        -40.92136408
S          -1.24675431896510    0.11328194232630    0.59655865585049
O          -0.04664802927660    0.71387962214311    1.20513005445929
O          -2.20038842902078    1.10750426680575    0.17105297484082
O          -0.88189022445629   -0.83855257116806   -0.42846628904971
O          -1.92915961556851   -0.71729337881451    1.76504148070066
H          -2.53251051974653   -0.09982791986798    2.16876315275037
O          -0.78539512402544    1.54176304348164   -2.00888411582095
H          -0.98360295379326    0.74414039019727   -2.50747583012758
H          -1.41188333857781    1.53436748341677   -1.24990878834534
O           1.40807220798717   -1.49716270967580    1.65440571760632
H           0.90607082395916   -0.66043419100407    1.66403683185526
H           0.79152216076618   -2.17940817665024    1.92568596138655
O           1.65499774524795   -1.18913867586218   -0.98064294391091
H           1.90493368051896   -1.45349745675138   -0.06767248475201
H           0.67494639764121   -1.28339517565570   -0.96865586834164
O           1.41965944758774    1.26672128331244   -0.75454373624002
H           1.67533503495228    0.21864892232700   -0.94236455146084
H           0.64730956741650    1.48744234459398   -1.38971264861310
H           0.93538549031914    1.19096093733301    0.14765242614101
