    19
        -40.92343598
S          -0.30167744577873   -0.34998741244172    1.62224386928229
O          -0.30461003160730   -1.74021111555981    1.16386872303582
O           1.04147522939102    0.17425612002964    1.74766774192464
O          -1.15315234289226    0.49098165283643    0.79591101843326
O          -0.94966906913529   -0.35914065842650    3.05818462566768
H          -0.38322900312697   -0.95402489830039    3.53960198946031
O           0.12050364345459    2.08826616876578   -0.89963450417698
H           0.33404502130102    2.95469143569325   -0.55073670546349
H          -0.36728010077888    1.61800123348574   -0.18777908807717
O          -1.57167041608088   -0.14664960812331   -1.76118306318732
H          -1.70090400732345    0.04191571581306   -0.80834842195723
H          -1.24602801106315    0.67832613428320   -2.13777400721036
O           0.37386022800675   -1.69789187252594   -1.22513056449971
H           0.09294022354453   -1.87686383532607   -0.23382590995826
H          -0.42707859092730   -1.17872322367391   -1.60612429730960
O           1.96536232504536    0.14595033580942   -0.69927803622922
H           1.47952938822890    0.94684023113406   -0.98763532911891
H           1.84423351561467    0.13913193691221    0.28021065799746
H           1.15334943440417   -0.97486834056125   -1.11023867862910
