    19
        -40.92008967
S          -0.19284929132781   -0.75903601425907   -0.19676097980502
O          -0.07324521096853   -0.26123087333587    1.15706539508183
O           0.06653269934901    0.23188301911726   -1.20394493491431
O           0.74040710168737   -1.95887279555067   -0.38271198594611
O          -1.58565114466696   -1.36354180513871   -0.39580663275484
H          -2.17065125625139   -0.61923997694235   -0.80134627446860
O          -2.66131873321695    0.74400659666518   -1.26100821951099
H          -2.65051247283322    1.20664301635767   -0.39374836527136
H          -1.84992616786709    1.01795918275877   -1.70768622424098
O           2.56467894317445    0.32151466396474    1.27580513121540
H           2.93801443544945   -0.13142252104261    2.03477179653242
H           1.59761055362722    0.22176270426830    1.34269291117590
O          -2.11341605414141    1.51206351603052    1.23846420545400
H          -1.31263027072854    0.96270701759127    1.31886512298274
H          -2.66814492892289    1.29572812937780    1.99083261608525
O           2.70871596732739   -0.62589126391309   -1.21748187413076
H           1.61731245770106   -1.58633283648822   -0.77359716763072
H           2.13657851715991    0.00286465532537   -1.67581383695568
H           2.90849483550359   -0.21156441481761   -0.34859070286357
