    19
        -40.91426465
S           0.75576951166730   -0.23687950175731   -1.54145455588975
O          -0.63826268340832   -0.83301526944349   -1.47634142460153
O           0.69824463748938    1.07941830914631   -2.09495583126199
O           1.43230066060124   -0.40234032737878   -0.29166093844827
O           1.50827957145432   -1.15239457132288   -2.58520782446228
H           1.24658442953168   -0.86643109426547   -3.45791077023191
O          -0.54048984928032    2.73353838676846   -0.32750522304984
H          -0.17625656250243    3.61466991918736   -0.43285807309405
H          -0.16542726672116    2.19328676213242   -1.04395413972801
O          -1.46389677001345   -0.83019862330188    2.30927226202466
H          -0.90666754259562   -0.02848129663976    2.13760711610692
H          -1.37122708244802   -1.02804539803241    3.24244666063580
O           0.23808953931941    1.09784567420535    1.70746375558945
H          -0.16019192542056    1.78025545687015    1.13545495572549
H           0.85114618840172    0.61769634092551    1.13227442776498
O          -0.35394214626567   -2.31835790506896    0.47743056018602
H           0.56020706095923   -2.02468132884664    0.59346779988029
H          -0.87856593914051   -1.85831996543983    1.19476139346351
H          -0.63569382162646   -1.53756557773919   -0.67833014060922
