    19
        -40.91641696
S          -0.77625973164571   -0.11568273206562   -0.85779686429924
O          -0.03386371160872   -0.94073472677046   -1.76134109572128
O          -1.32249627865203   -0.93338403125807    0.29650399463501
O          -0.03947493033360    1.02129631079568   -0.34802254611223
O          -2.07179945714788    0.40543702021841   -1.55415005451100
H          -1.76247029778538    0.92003580081528   -2.32883571453844
O           1.95297658822972   -0.75137766290312    0.23430573452899
H           1.63247898513352   -1.32201664637196   -0.47225571129628
H           1.53065386427403    0.10322026109832    0.06860546860930
O           1.17444571718556   -0.96512088767294    2.82081795075005
H           1.60222016589892   -0.93745060661911    1.94009372283249
H           0.97476940250458   -1.88584523074913    2.99870279906890
O          -0.28098086411181    1.45785225182432   -3.17066032073580
H           0.12664132385872    0.58663925514334   -3.24566155565632
H           0.18046856722049    1.91158209247331   -2.45790028948469
O          -0.91892627200711    0.52951023600222    2.26578878822630
H          -0.14886259036057    0.03008198942567    2.64899848188310
H          -0.53839957503799    1.24381600913770    1.73906148271123
H          -1.28112090565981   -0.35785871250158    1.18374572909169
