    19
        -40.92071416
S           1.13138265569480   -0.31099684010620    0.90413588900592
O           2.12652683369070    0.72021754278425    1.08819533735498
O          -0.20577516899527    0.13824780060296    1.33974473423413
O           1.07464391873557   -0.84276131293039   -0.43796212155965
O           1.51990157187331   -1.49755264310779    1.87251723162753
H           1.95520237708318   -1.06413887649317    2.60117443846631
O          -2.19577587538377   -1.50917144693204    0.61555996715567
H          -2.96706493996549   -1.33680212538760    1.15760976433891
H          -1.45675030347755   -1.00666240001204    1.01232746119610
O           1.51270629071506    1.87853592956549   -1.17784062326879
H           1.79139365590458    1.19749192756220   -1.79709650881908
H           1.87457791585573    1.59410613285595   -0.30541985311599
O          -1.20871220073705   -0.72886316288316   -1.73391705868621
H          -0.30044137119231   -0.97977246282119   -1.44684026263657
H          -1.78788738755617   -1.18006439444522   -1.08445606385226
O          -0.94193423678012    1.48326292117548   -0.65568567928830
H          -1.16514489886361    0.58666165145530   -1.24906203491793
H          -0.74732227572237    1.06395445728806    0.26099655401858
H          -0.00952655088463    1.79430729177181   -0.96398116126722
