    19
        -40.90805039
S           0.26718525761524    0.67690475120757   -1.43749182021430
O          -1.05149982641361    0.05488986012734   -0.98431946735505
O           0.47933660789630    1.91461974550416   -0.74867553645775
O           1.31040339051298   -0.29296412392335   -1.38954651406519
O          -0.00690499127204    1.02546160167449   -2.94691529029218
H          -0.47480538130517    1.85765650015067   -2.95279819673339
O           1.46725699956812   -1.49563596156007    1.07905967092643
H           1.85556821937571   -1.14564003395914    0.26469020108776
H           1.18327573930938   -0.71286237199271    1.57979276289167
O          -2.22820196553961    0.73268410123231    1.65184483436814
H          -2.23228715803646    0.50940800090703    0.71795981681429
H          -1.29752742692123    0.76327745854106    1.90652202284675
O           0.62335124743445    1.02824653452102    1.76907158604697
H           0.59648848452303    1.46051044839262    0.89410005154609
H           0.92432680167904    1.68960940124655    2.39586591365686
O          -0.55626624607329   -2.28719709976631   -0.33851976477009
H           0.16070119154846   -2.11549517076076    0.34438002025508
H          -0.90802138413478   -0.96721259582361   -0.71850681529905
H          -0.11237953979487   -2.69626103576018   -1.08651348529730
