    19
        -40.91782035
S           0.85362958628570   -0.23977316659565    0.60509579873096
O           0.49814719897644   -0.59676721722782   -0.79877217072036
O           1.54483173713291    1.02851574731489    0.64300002891416
O          -0.33480476869099   -0.25090880533003    1.43524206939188
O           1.79226211525452   -1.37109793898508    1.10954362994831
H           2.45431381663812   -1.48422104889425    0.39301141510964
O          -0.57596300706849    2.47659149574342    0.33577029787669
H          -0.95645161236768    2.41077380123381    1.21558299848131
H           0.33171093582575    2.08109070850947    0.42442482585854
O          -2.73530328174682   -0.64321001834894    0.53964194843333
H          -1.84941051309887   -0.66938498248650    0.98309753361342
H          -3.35502747893148   -0.29699899947319    1.18449997741601
O           2.94267193812088   -1.53884416306897   -1.25226432017876
H           2.90877613026187   -2.40100833247387   -1.67364144405298
H           2.08097811192013   -1.11350552898017   -1.41420751188635
O          -1.53133203671416    0.73005491364466   -1.23023605292251
H          -0.64980205155796    0.11989224781757   -1.18469396855526
H          -2.18431424716555    0.20537310433496   -0.64220446861554
H          -1.23491256306982    1.55342819326587   -0.67289058684201
