    19
        -40.92021777
S           0.32824892458959    0.98802481498744   -0.18351073476916
O           0.81087725318275    0.06727707165754   -1.19775349341699
O          -1.14824778447023    0.73574198650528    0.05951415796443
O           1.06029566814659    0.97228067226634    1.04322229801491
O           0.35760216345369    2.41673349441858   -0.76985157487622
H           0.07316140217169    2.32443556262085   -1.71307930209664
O          -0.06302964545526    1.55813618563178   -3.19057966347998
H           0.62057261092324    1.78044014291390   -3.82736517715768
H           0.24374524966215    0.76781743619748   -2.70666476811375
O           0.27358220249793   -0.40662768318197    3.21061228858213
H           0.73677351709506    0.08702015311873    2.50740410352092
H          -0.01099642821022    0.24515281035562    3.85397738210559
O           0.34401157927753   -2.43462688596176   -0.33493329599074
H           0.07852462343391   -2.95076933917585   -1.09854980235097
H           0.65400536843892   -1.57302326374986   -0.67325358787224
O          -1.37742043430179   -1.34178828553870    1.36858302467363
H          -0.85172704891001   -1.12716590131410    2.17833019944904
H          -1.32604601321636   -0.17282673334905    0.64229168520948
H          -0.80393319829472   -1.93623223857583    0.83160626058781
