    19
        -40.91893412
S           0.71139864638943   -1.38391006675591   -0.77123648088446
O           1.11231849261885   -1.02656264660006    0.59815878021640
O          -0.31388457891679   -2.39624108911844   -0.78945050897216
O           0.42100886160704   -0.19913707779917   -1.55451168300672
O           1.99854463580022   -2.03745141803105   -1.43154315506825
H           1.92578244657545   -2.95344969092624   -1.18100254569728
O           0.69897235567954    1.22626203712767    1.49516200479473
H          -0.30838043060701    1.13847596503615    1.72004773289420
H           0.95034204797889    0.24265686361177    1.15426463355821
O          -2.09814055434661   -0.48732976355291   -0.41846176304267
H          -1.78932136252841    0.04736785187063   -1.15604654422384
H          -1.58775116289620   -1.31896564570420   -0.49567641030639
O          -1.76197493112520    0.77113455263740    1.85803718299554
H          -1.98285693593137    0.32677230720355    0.99569643564313
H          -1.93051841976880    0.12133156433179    2.54321147841913
O           0.84118876946243    2.25049500083756   -0.82311453869927
H           0.76271001610575    1.79075710322666    0.64200126901601
H           1.69331668992744    2.52743868211360   -1.16483445907600
H           0.65724541395096    1.36035546048415   -1.22070143855888
