    19
        -40.91792397
S          -0.25558744030714    1.40046070093629   -0.91201388998063
O          -1.55481294337781    1.42788008072612   -0.26314255807017
O           0.82501352557243    1.69006891662962    0.01586755034512
O          -0.02714422510030    0.16702385267484   -1.64991796882447
O          -0.26526717285870    2.55880536639182   -1.99202341791300
H          -0.58586169263254    3.30288822685040   -1.49198848764524
O           1.67608467720808   -1.47317765432735   -0.63836868222965
H           1.82615155076785   -2.14433639669549   -1.30685176678400
H           1.14397585665997   -0.75384990125245   -1.07768472436874
O           0.01063496651032   -1.71922292495471    1.25583145272297
H           0.21678566313910   -0.83881929472623    1.78469329238698
H           0.74195904030695   -1.74724902351196    0.53340638652361
O           0.59008496340966    0.50238081789090    2.26975269733209
H           1.46721938421041    0.54970835485508    2.65701385013821
H           0.63630949483752    1.04298006212444    1.42739339485887
O          -1.95506541159294   -1.10065373015552   -0.17152134057327
H          -1.97284425687031   -0.10706315978906   -0.09432014739666
H          -1.63234459144617   -1.23580108648788   -1.07057050724723
H          -0.88529138845519   -1.52202319725022    0.72444485674572
