    19
        -40.92079115
S          -0.22408253219030    1.06563308531531   -1.01068265929384
O          -1.45298465921299    0.46900325673848   -0.48358727548245
O           0.06608208877209    2.34644451165220   -0.41956633970033
O           0.88142576086174    0.11889387301203   -0.95996457618002
O          -0.48584448777540    1.30900963878556   -2.55253938987169
H          -1.11908068479355    2.01998568849614   -2.55896482491089
O           0.14536078389375    1.76159611739475    2.15639916486887
H           0.04544983054958    2.05134238208219    1.22374138503046
H           0.62627859283836    2.46100614627910    2.60308745928597
O           0.24410395674896   -2.38230358526170   -1.42597881009257
H           0.52857877796218   -1.43820246113760   -1.45375383103051
H           1.04549427931796   -2.90808046126987   -1.38588597819627
O           1.01460623692808   -0.66073122383537    1.58592092738599
H           0.72620195849586    0.17320593024734    2.02551561377536
H           1.26674714845459   -0.37420370061208    0.68467063200087
O          -1.06043452969462   -1.68875809187115    0.66386679745418
H          -1.37613156265462   -0.78716837179954    0.21829368583422
H          -0.65970600416089   -2.18364710744391   -0.12667391723516
H          -0.21206495340040   -1.35302561755625    1.21610193676891
