    19
        -40.91426465
S           1.27363456007220    0.40653580314855    1.10281955165765
O           0.91117561427553    1.55567850822746    0.18035615501615
O           0.55910150757959    0.52547094384026    2.33475848694451
O           1.19380624073607   -0.84111191733397    0.40704410459315
O           2.80148974174877    0.64722507407667    1.42157136719739
H           2.85043636285730    1.32228762255540    2.09518292012623
O          -1.24825051830238   -0.11877160174436   -2.56768787744569
H          -1.47749203203515   -0.71990535647953   -3.27806271033147
H          -1.43654824230497   -0.60141125982005   -1.72251156034280
O          -2.08266148236329    0.07025974323803    1.87860338680132
H          -2.46188601536321   -0.32120590333558    2.66796878038097
H          -1.17302386658941    0.32651410699504    2.10826513627742
O          -1.41924692017470   -1.44199714385173   -0.28827567242144
H          -0.48685948273168   -1.46603308990253   -0.02881936897263
H          -1.86076325516788   -0.92356591601351    0.41016151510363
O           1.23487146602724    0.44315992455637   -2.00178153333207
H           1.05105575095945    1.20778675851740   -0.81600516871700
H           1.47071997810617   -0.38768432048035   -1.56655701427806
H           0.30044057267348    0.31676803380198   -2.33703050825767
