    19
        -40.91988389
S           0.43855214439971    0.62294432335836    0.61239595012355
O           1.86457756092949    0.51146707935264    0.59348493101516
O          -0.12259591834307   -0.67347922661389    1.21823169023379
O          -0.12151702848313    1.76674193990003    1.26311892132433
O          -0.10296641616343    0.63413053005254   -0.84368416525544
H           0.31279786021946   -0.12311903099814   -1.36951717414855
O           2.84013221879911   -1.79868974053504   -0.25916948241758
H           3.79646216912465   -1.73474658791016   -0.29427492947497
H           2.52844409300952   -0.99893204198070    0.21287680494790
O           1.06138255049424   -1.24003305947720   -2.14375296634869
H           1.69884758407087   -1.61763621337468   -1.49204515515028
H           1.58554600760755   -0.86570568672163   -2.85566635220703
O          -2.48028940138054    1.99677970500020    0.06228212695434
H          -1.64120428515032    2.15148380594625    0.53973759438301
H          -2.22994465798598    1.86066128454155   -0.85483249668436
O          -2.64439676485572   -0.31067137927194    1.31718454378396
H          -2.74420162646361    0.53465445192311    0.80608515968140
H          -1.13436373752673   -0.60483437902185    1.26832600195288
H          -2.90526235232025   -0.11101575417007    2.21921899727627
