    19
        -40.92008988
S           0.51647946924017    0.59307490181827    0.18839126663789
O           0.74088371081444   -0.75572792058377    0.62861775515778
O          -0.68817889764293    0.75816336484710   -0.59705118525572
O           0.47542119692409    1.54177888699448    1.38959517235751
O           1.72045494695651    1.09486991426957   -0.61389480609435
H           2.11525640500745    0.27150527711895   -1.08989062891289
O          -2.59341392615397    0.19500947158414    1.23724622106196
H          -3.20907066896650    0.93038360433084    1.26454029743191
H          -2.01197381006296    0.34975634935853    0.47068075286051
O          -0.09532573990751   -0.70420765112607   -2.79238837906542
H          -0.21645833353976   -0.14761182947345   -3.56447760970502
H          -0.45789910266062   -0.20920897880495   -2.03530643445791
O           2.28209117243937   -1.13086349745253   -1.65265350432110
H           2.01202918092077   -1.61176239702856   -0.85987060684187
H           1.50013727451518   -1.14890064931263   -2.24832312945255
O          -0.58879026169468   -0.09908315047373    2.97760434373289
H           0.08910974447271    0.99916591383935    2.17514078431924
H          -1.46998036478923   -0.08176076563397    2.54187435124738
H          -0.12077199583363   -0.84458084429434    2.58016532921110
