    19
        -40.90973539
S           0.11583584859887    1.22158217939341    1.20554962714374
O          -1.03371367974094    1.14185977306885    0.34979776191767
O           0.05607107062262    0.10663575448720    2.25314404655909
O           1.38518330783386    1.29168804043368    0.56722726731345
O          -0.04534969053092    2.49472098936993    2.10994528056538
H          -0.95555395983185    2.51262379951033    2.39710923853002
O           2.10515218471994   -0.02165384541938   -1.71652725862022
H           2.75821507387489    0.52015684300128   -2.16299112388672
H           1.95756782910037    0.38814034404830   -0.84793154391167
O          -0.55571561408872    0.17150669151550   -2.30407075633609
H          -0.72698011215895    0.80321130540784   -1.59420415040141
H           0.40111254105615   -0.01340133717207   -2.26099931654081
O          -1.80042245511805   -1.45312382010885   -0.63124986297142
H          -1.38685796602845   -1.06834975488158   -1.44214308099735
H          -2.13878731428638   -0.67766686932007   -0.17049563835259
O           0.20916501612300   -1.97453529331575    0.89644767494978
H          -0.55230695933777   -1.85579359780462    0.24232143475791
H           0.16474888274526   -0.79279080514143    1.74213325108964
H           0.04263599644978   -2.79481039707302    1.36693714919911
