    19
        -40.92343665
S           1.01357973802676   -0.13695609580740    1.34132322809090
O           1.24402370436926    1.25608255932027    1.02323399743596
O          -0.23736249919617   -0.32946341798778    2.07648709844926
O           1.08680927517092   -0.99626243960337    0.17022090157748
O           2.16861172065528   -0.60509110059969    2.30505404930459
H           2.06023238289840   -0.03083169890905    3.05672274887390
O          -2.07796498985563    0.05743897785749    0.45409202622091
H          -1.42071791763319   -0.11819022347555    1.24809325083455
H          -1.89465875697365   -0.72981847486962   -0.18075571527339
O          -1.15523542516635   -1.78011600971853   -1.04591043444113
H          -0.94150244012894   -1.42412129778317   -1.91542024607297
H          -0.30809972332654   -1.77491905681177   -0.55342421236618
O           0.68659947505824    0.21122540850246   -2.15971766983796
H           0.97897857868021   -0.23019240783148   -1.33178435641273
H           1.47994713315010    0.54667121371951   -2.57937967759866
O          -0.72337082603729    1.87111848388708   -0.58747262615225
H          -1.63821475703844    0.91121154478966   -0.01611638217703
H           0.01377230965725    1.86878657892443    0.06874483984563
H          -0.33542698156745    1.43342746598503   -1.37399082009545
