    19
        -40.90614304
S           0.23750120269233   -1.05506726089706   -0.35595213256787
O           0.22409969652274   -1.26116828032837    1.06800109160304
O          -0.85450339334339   -0.06560921097409   -0.72703909490646
O           1.47558003942059   -0.69844177521567   -0.95770450686468
O          -0.23097660390138   -2.40953417460298   -1.02080660397110
H          -0.84018891158781   -2.85093384709870   -0.43126560069548
O          -0.45058906649146    2.64350051726112    1.60180002821926
H          -0.52666422193049    3.25072018880752    0.86352889715980
H           0.41902064053484    2.20178263470419    1.51218535900204
O           1.69651575157351    1.05809785886001    1.17036717941787
H           1.39991408818660    0.21353072478089    1.53136739197523
H           2.03314727780609    0.84622643827516    0.29285303152748
O           0.47292042168132   -1.03806812548472   -3.55175112179275
H           0.16798313163660   -1.93310837203079   -3.39305240073535
H           0.97789794153651   -0.78892676987661   -2.76993069943665
O          -1.90980217076504    0.47611654331112    1.45363635439037
H          -1.50016394726608    1.37121051451892    1.61009454033923
H          -1.40837476723643    0.18914850212012    0.13663087442696
H          -1.38331710907850   -0.14947613620339    1.96703740290019
