    19
        -40.92174071
S          -0.84302499153967    0.16564425690350   -0.25671701212471
O           0.29613915635395    0.69385631720369   -1.10902926919656
O          -0.95006662508617   -1.27077856862112   -0.40206520044707
O          -0.71319364638467    0.61978678607487    1.09670696636643
O          -2.09349010742568    0.81881572464025   -0.88433610545519
H          -2.29813816915252    0.28584899649480   -1.69573689723051
O          -2.33609617681738   -1.06978417440351   -2.64889868035307
H          -1.74050535215205   -1.47647627782462   -1.99259765483459
H          -3.15095391861579   -1.57835227124711   -2.63975412343071
O           1.46306461434123    1.93154637151200    1.98373180406973
H           1.33278697058923    2.87381475040981    1.86529979972216
H           0.60029489595704    1.50912710831865    1.81093795408084
O           1.11976805459734   -1.69108821221216    1.29037220183381
H           0.76456088522897   -1.30342823427171    2.09453393696716
H           0.36774390066339   -1.77320647571976    0.68089202928947
O           2.41175164586636    0.30459038511029    0.10633801892475
H           1.27131062681017    0.53855023847837   -0.65353362518391
H           2.31863877008037    0.97561662162420    0.82155467624773
H           2.17940945669338   -0.55408335246661    0.53230119077270
