    19
        -40.91285557
S           1.56927940645757    0.68222554745311   -0.02055412873231
O           1.91789494195832    0.36097841386122    1.33484379043451
O           1.57179358573482   -0.48598573645872   -0.91119040603398
O           0.33295554202552    1.44021073994922   -0.17580474696618
O           2.70234165506291    1.64749853289652   -0.57204991104482
H           3.52456982221569    1.27548271164849   -0.26534362691747
O           0.10651924325422   -1.25695665889437    2.45301927968689
H           0.84433115932266   -0.74846050065301    2.06064411188301
H           0.18606762022126   -1.15061359403443    3.40283760069375
O          -1.71512773528885    0.07883334926944    1.00969023996327
H          -1.21260898413902   -0.51679149993130    1.60485499329636
H          -1.06442925357439    0.74071645063302    0.72046543779572
O          -2.25611746340711   -1.05964135628185   -1.23680085156709
H          -2.11339136716074   -0.71403222324984   -0.29903076766898
H          -3.13831369624078   -0.78786897205917   -1.49733929403828
O          -0.33681238418898    0.19718837216869   -2.24578022623444
H          -1.15901313082391   -0.38778159213754   -1.92739527245862
H          -0.29727896821304    0.96704735752547   -1.59757905183662
H           0.53733999677548   -0.28204934175971   -1.83748717025503
