    19
        -40.91426465
S          -1.68027214521152   -0.14040069620971    0.40048922459165
O          -2.29704267932697    0.07529394014787   -0.87048834012980
O          -0.96423845994117   -1.47837608953589    0.40871380623152
O          -0.82653630571030    0.88982607263884    0.90731774819344
O          -2.83798374633820   -0.32647410534991    1.45831778571786
H          -3.54233697549881   -0.80847527651981    1.03004050604647
O           2.78801372935575   -0.51257732214323    0.35821908479969
H           2.30903630705683    0.17399152969417   -0.17275080768175
H           3.60809942405568   -0.10780690747938    0.64488255688431
O          -0.36379467023433    0.45926472123061   -2.74380575370052
H          -1.10775453161528    0.24934136520457   -2.15363401212387
H          -0.70959060091931    1.04777749583948   -3.41776863446761
O           1.31252406158062    1.35259461147578   -0.79083188618467
H           0.58783095679811    1.42109838207393   -0.15260856446333
H           0.89307109264020    1.03981300729523   -1.61409278929331
O           0.83373673977494   -0.96731189382667    2.02430979761490
H           0.51735488266518   -0.05843998914347    2.12038827816743
H          -0.17081097655758   -1.39959590465928    1.11413617364883
H           1.65069390742682   -0.90954293073073    1.44916581614814
