    19
        -40.92246928
S          -0.89274500861659   -0.02828313785516   -0.58995932681079
O          -1.65893291873710    0.50121760809655    0.51413272370927
O           0.34094676146121    0.84512407886062   -0.80250940886718
O          -0.52198724221411   -1.40576898655471   -0.46854328085642
O          -1.67910483627438    0.17271286898572   -1.90379764963884
H          -1.94590804070895    1.12572287325700   -1.87858900364080
O           0.01282907372145   -0.53553016237511    2.36312151193918
H          -0.71290165024702   -0.10463339883154    1.87985688293168
H          -0.11680318476164   -1.47993477143252    2.24565090698441
O           2.01491431466912   -2.26670093590480   -0.24099463995460
H           2.35002349132894   -2.50913156693311   -1.10581428095214
H           1.05421255143204   -2.12842294040737   -0.34469372701780
O          -1.99893487121217    2.62551675718470   -1.10175958862449
H          -1.11968327299541    3.01394780375898   -1.11551230865216
H          -2.08382583494344    2.16547226373223   -0.25082307339271
O           2.05567900289975    0.15838811505790    0.82797200757185
H           1.15424321387734    0.60326944177546   -0.10249706439579
H           1.45556093060170   -0.01819455846017    1.59286297756561
H           2.29241752072310   -0.73477135194409    0.48189632210274
