    19
        -40.90614291
S           0.46353793507678    0.25143227349122    1.00874799469212
O           0.92032808057248   -0.64087025553122   -0.13323306452772
O           0.21376885591539    1.57512458310200    0.50313799207907
O          -0.57021582629272   -0.37099768352482    1.76134129013861
O           1.72980397481090    0.34921050977471    1.94850674916216
H           2.30592993904766    1.03937851708021    1.62397374181068
O          -1.45934034350312   -0.01635892020988   -2.75583978017969
H          -1.53104134336437   -0.96496805910123   -2.87629005169209
H          -1.90252427782451    0.19234904762158   -1.90748327426487
O           1.09230684465751   -2.48114358020644    2.55512391568571
H           0.34969427846788   -1.90789794405241    2.33555286991822
H           1.77192216131999   -1.90619357461522    2.91093399152486
O          -2.23715114469519    0.57281987901342   -0.23534680177444
H          -1.64022678909488    1.29512258153895   -0.00380558510190
H          -2.16529401678196   -0.04953491983133    0.49675779038785
O           0.90903865174502    0.87913156722772   -2.09537875304840
H           0.68411102516496    1.67306000752177   -1.59410584886427
H           1.00408327310393   -0.06753105127501   -1.01799858985912
H           0.06126872167025    0.57786702194940   -2.52459457608174
