    19
        -40.91904999
S           0.27186438566237    0.78125063054476    0.82290637752157
O           1.09046327047727   -0.47368808786068    0.46358449232135
O           0.18933508245421    1.65189107570780   -0.30364119254351
O          -0.97802234880365    0.33671055309422    1.38673277745397
O           1.11357484692033    1.45605601638731    1.93423875652753
H           1.08505175762591    0.82324390914645    2.69414056653258
O          -2.25317766980082    0.37063228439116   -1.02103594835316
H          -1.99425935076774    0.25724798627270   -0.09258630283192
H          -1.98842489581138    1.26763358023347   -1.24340418132680
O          -0.71714391554047   -1.13678492228441   -2.62963842030162
H          -0.91137947105637   -2.05701585817408   -2.44611975790997
H          -1.35525750548744   -0.60620982238296   -2.10151003000751
O           0.55520221034798   -0.63795820027706    3.38028512074957
H          -0.29069927721748   -0.52982290336775    2.91665280259333
H           1.00645362442908   -1.37269001260428    2.95552450470173
O           1.59628002164341   -0.07423666625395   -1.94150929639233
H           1.35907915764088    0.86103766951433   -1.89825077600221
H           1.41072602036416   -0.39121101000427   -0.53288893367437
H           0.81033405696515   -0.52608621208064   -2.34348055906227
