    19
        -40.92120206
S           0.69098393792598   -0.44893414935149   -0.60905411394901
O           0.87651974367032    0.83487540486561    0.24121011602951
O           0.74837906965803   -0.05645583372184   -1.98072229433604
O           1.59547783815649   -1.46613003972951   -0.17460533242105
O          -0.74003339454697   -0.91122581548331   -0.23532296654993
H          -1.33555250582348   -0.09513642590111   -0.34136137624598
O           0.33531143704874   -2.44226269593647    1.95374072625347
H           0.89130092259795   -2.32106028534777    1.15919461492461
H          -0.56518000889107   -2.51474765315152    1.62727143800195
O          -1.90622156642474    1.33295364139793   -0.47972141511232
H          -1.28437448475072    1.88692518005159    0.00181553829224
H          -1.77685178286724    1.53617983701264   -1.43537403337047
O          -1.03277067325563    1.66568048189593   -2.96136771717780
H          -0.35833406335644    0.98356297891862   -2.77008977340037
H          -0.56533949625323    2.40482025634361   -3.35451803671183
O           0.96398132267518    0.01030945944207    2.64290886715218
H           1.87141401407010   -0.03297756538207    2.95359317758985
H           0.92682654738950    0.56621396823751    1.22331010363600
H           0.66446313308909   -0.93259074417998    2.53909245753569
