    19
        -40.91302014
S          -0.11042526319981    0.24821403225420   -1.98211699066071
O           0.25161726693310    0.78951958780981   -3.24665422174648
O          -0.98904504081655   -0.90639422537454   -2.00840907387175
O           1.01639735673945    0.02903689149850   -1.05391186313898
O          -0.95173262031256    1.40334977286773   -1.22099527825863
H          -1.50412694244282    1.70696478389906   -1.93276434519032
O           1.07128477981543    2.08035411282144    0.64022448393362
H           0.25328193761070    2.52442586515430    0.40192262955528
H           1.20526056456585    1.41501820773456   -0.06638498001357
O           0.79727081455675    0.37028366088579    2.59994823140381
H           0.87851170422861    1.11718457461724    1.94336811661711
H           1.60381467020050    0.37877101898964    3.11875740265448
O          -1.75033259968142   -1.91700289499518    0.20536798038122
H          -2.00643200616870   -2.82226009147362    0.01685302698005
H          -1.56900898995254   -1.49239724297325   -0.68529575120123
O           0.63328441692261   -1.48167209479855    0.87412896322241
H           0.67612196848405   -0.80156944178427    1.65241553918434
H          -0.36420817885305   -1.73579588638201    0.72763027590359
H           0.85846616101279   -0.90603061045285    0.01591585446684
