    19
        -40.91814143
S          -1.32671172942381   -0.79450551517789   -0.84974558373591
O          -2.37512047307778   -1.18437065363472    0.04862563163930
O          -1.22059250495274    0.66110343052496   -1.01476050404541
O          -0.01699995718024   -1.36930357310487   -0.56052776637355
O          -1.72098401166175   -1.35671764918843   -2.28379585729785
H          -2.67078065684222   -1.41026646741897   -2.23869503644746
O           0.68769247023072    1.47123784788599    2.14328003514810
H           1.51185323504091    1.27660513529411    2.59410730017779
H           0.14563149380886    0.63756777906545    2.18185438993795
O          -0.54280125937692   -0.83657969188754    2.00113317768721
H          -0.11217422771394   -1.24618109140413    1.23289610417464
H          -1.47937550039260   -0.87120020543428    1.76011340114836
O           2.21428025516285   -0.15970242880557   -1.08375762123313
H           1.43389905698521   -0.74317858814048   -0.89437617284672
H           2.41986594929310   -0.27965694100523   -2.01269239552425
O           0.83194673313747    1.84677060067808   -0.35963914336352
H           1.51941243745089    1.15209022501985   -0.66368366968326
H          -0.09619000900881    1.40919810502178   -0.67281782084141
H           0.79714870889752    1.79708970166198    0.67248153111977
