    19
        -40.92071420
S          -1.31113771679775   -0.13259358491067    0.67902333067981
O           0.00191449428883   -0.15665050065563    1.35357983331945
O          -2.03098530446216    1.08910000189470    0.95652216020405
O          -1.16238163116482   -0.42258625002559   -0.72849807346423
O          -2.14458927659256   -1.30978547579400    1.32404652950332
H          -2.57326119871919   -0.90232830778168    2.07130961655440
O           1.61162890674158   -2.14289109024357    0.54151156933588
H           2.30741863073994   -2.27106775075836    1.18790154575027
H           0.96388601157928   -1.53134449307515    0.94488109473321
O           1.26228315490034   -0.73436286559865   -1.69221656818916
H           1.58917277438864   -1.43186580979444   -1.08523524156575
H           0.28478693414937   -0.76605497099259   -1.57493890420602
O          -0.76947944494127    2.39847464275322   -0.92710660438819
H          -1.33418857958992    2.08168941434636   -0.18297768848561
H          -1.10186621151120    1.94057017514646   -1.70478602521579
O           1.38086653921564    1.24780308991559   -0.21504496360679
H           0.93402033470751    0.75067383740508    0.56386580341597
H           1.46831197746461    0.43793020622241   -0.95295946185438
H           0.62359961570474    1.85528974199619   -0.55887796259993
