    19
        -40.91893424
S           1.42024745726473    0.87890268580586   -0.47175177566982
O           0.94186610630367    2.05096430094549   -1.16013433880782
O           1.05854539649303    0.79787457578012    0.92974105726268
O           1.06891869750113   -0.36113692775868   -1.18070344926184
O           3.00544238260440    0.95197754475185   -0.50876718372777
H           3.17956399019900    1.38077130637141   -1.34121441646375
O          -2.51572279588247   -0.57304011939203   -0.69449949777162
H          -2.70090704931053   -0.49653676637254   -1.63256384281138
H          -2.18291291133008    0.31889547686869   -0.40485401532396
O          -1.40092078022116    1.69593602093256    0.00131122745414
H          -0.63716283232960    1.94994293163234   -0.55578152706443
H          -1.03560143250292    1.63986995181445    0.88942029275863
O           0.21177740616447   -1.31863133143107    2.16099493016753
H           0.54757360516937   -0.45487328630510    1.80687851545616
H           0.96194053661026   -1.75127557456846    2.57286915599522
O          -0.48363151818879   -1.98973706490166   -0.18631393974659
H           0.23121455204729   -1.34731155773567   -0.65845876343412
H          -0.28755961724571   -1.86081804519997    0.81141011842731
H          -1.38267117293832   -1.51177412113998   -0.37758253636768
