    19
        -40.91410385
S          -0.71423378243823   -1.03460788309445    0.88283464155222
O          -1.18672360474623    0.37975054659803    0.47091522565425
O          -0.72816867340922   -1.12481925115090    2.30892425471628
O          -1.41024826487571   -2.00818278763466    0.11299346606533
O           0.78301385010228   -1.04231560469085    0.40302955377362
H           1.28654458360379   -0.52431624255715    1.08376466000138
O           0.75411107777279   -0.08833323431493   -2.30315913349131
H           1.05298715332086   -0.72726822338311   -1.64703785282458
H           0.92033733273430    0.78399162568888   -1.89968693208168
O           1.54451553111937    0.18282354689192    2.55531869126001
H           2.18244819086370   -0.23271817028115    3.14058585688410
H           0.66356788711988   -0.15215323411343    2.81063144851770
O           0.71570333149230    2.11516902051305   -0.68023025071970
H           0.33794754448663    2.96467246522200   -0.91505003803639
H           0.10272651957839    1.69692669197785   -0.05971480954064
O          -1.83488352293699   -0.18423674682155   -1.86346539931000
H          -2.00504314206091   -1.10911214600265   -1.63701519990033
H          -1.54650269010136    0.26234576110652   -0.51314093453818
H          -0.91809933158354   -0.15761613387807   -2.25049723795512
