    19
        -40.92044765
S           0.83300269477575   -0.69153556765410   -1.17382849443326
O          -0.54625724931036   -0.60532628903408   -1.64714374246829
O           1.49704971833873    0.59650724846763   -1.22406037835264
O           0.90447019295717   -1.32648549647309    0.13117564522349
O           1.61657990171048   -1.63996487723523   -2.16982878223792
H           1.87292614913803   -1.05695092992291   -2.87803411142132
O          -1.79675902936683   -1.18722739341278    0.53168448772924
H          -1.47896460921933   -1.02917185110755   -0.39645597784604
H          -1.13645259917998   -1.79439343232707    0.88506856012657
O           1.15570331721642    0.36214979429572    2.07191175687296
H           1.37865877043208   -0.13311994172171    2.86225653790403
H           1.22239385205163   -0.26986756413652    1.30911028007600
O          -1.18942473558744    1.08300392856399    1.43756295201245
H          -1.55602039582254    0.14453530559237    1.13899697922610
H          -0.25536169415020    0.89277422059287    1.81944665566641
O          -0.64536190167059    1.98873150351120   -0.83559745580994
H           0.28323340739900    1.66418965631606   -0.96165330554182
H          -1.15277273727218    1.41546826998520   -1.42567339833266
H          -1.00664305246093    1.58668341570857    0.52506178159699
