    19
        -40.92007384
S           1.31518408194845   -0.28948268320257    0.37150976799311
O           0.52303833634910    0.81999242970099    0.93967531459147
O           1.35694360815981   -1.41987566484544    1.27181902890737
O           0.89106900467156   -0.59288588931103   -0.96989206901763
O           2.79418729453384    0.27238670486916    0.27061103980918
H           3.14799840369926    0.13366117554740    1.14407473491242
O          -1.11287228900647   -2.23325085181634    1.09547492782602
H          -1.33407794569972   -2.68169211626240    1.91469134664984
H          -0.14265486091582   -2.04304214626374    1.13404451125749
O          -1.86890316333060    0.14490038701058    0.58105566611317
H          -1.75085395662871   -0.84843583891288    0.77905161014796
H          -0.95933645393011    0.53721196065420    0.85548889080630
O           0.33145387592830    2.34250164414986   -1.27338164009792
H           0.46348954131249    1.93898281249929   -0.39506589448241
H           1.13526357161504    2.16558338431910   -1.76599342576298
O          -1.38706264516984    0.39217079743950   -1.82964017308354
H          -1.81965971621481    0.25305573260411   -0.51752839310925
H          -0.98955772567069    1.29411161987240   -1.83379544942204
H          -0.59364895170085   -0.18589345807888   -1.77219980405861
