    19
        -40.91597551
S           0.25288935754797    1.44709388123312    1.10286093341914
O           0.95561084331206    2.24361736193977    0.11223778605205
O          -1.08310751963094    1.06459608635349    0.60592585264301
O           0.99477455128018    0.31842079571406    1.59258657179552
O          -0.02317110234847    2.39794469582167    2.33442803666697
H          -0.40988013923045    3.16414253807475    1.92205317806250
O           1.38228333963091    0.75460040653320   -1.94830745812347
H           1.35566355618751    1.33268150793183   -1.13813689074301
H           1.58291705881939    1.33677637785605   -2.68432120810555
O           0.15787960108823   -2.15546287772132    1.52368805427560
H           0.97122434763043   -2.63906504672123    1.68053938710763
H           0.40308093676888   -1.20294947688893    1.60519979794057
O          -0.99398622009777   -2.45995463776071   -0.79348654929221
H          -1.88291498563504   -2.75641904842640   -0.58795003596488
H          -0.52138824030310   -2.38717878201996    0.08338417328253
O          -0.99506189781397   -0.05335472229135   -1.57968110954702
H          -1.11059012419747    0.45983361866271   -0.63895766406341
H          -0.04033439072474    0.19465602737817   -1.86062749087176
H          -0.99588897228467   -1.05997871567193   -1.33143535452121
