    19
        -40.92079121
S          -0.96412302333155   -0.64144983583448    0.93055849479610
O          -0.55233240236807    0.70635749989417    1.32796528474022
O          -0.89153036911641   -0.80642696844239   -0.51453394470534
O          -0.28695035574651   -1.66909808931184    1.67838592747328
O          -2.50450122061626   -0.74563290576304    1.27890387214540
H          -2.51469733852498   -0.76536456425328    2.23073476864441
O          -1.53326421611270    1.31011448775284   -1.92432307031679
H          -1.49094755734451    0.46163390427263   -1.42308253290078
H          -1.46832543060095    1.08191700858399   -2.85382366191623
O           1.61192461782965   -0.15932443916487   -1.16403144723096
H           2.07585387785509   -0.47525589292469   -0.35336927449562
H           0.74622208526351   -0.61441512513440   -1.12950209458159
O           2.25441886212997   -1.11723606330467    1.20627879474978
H           2.76588717170749   -1.90765989564540    1.38936357093939
H           1.33414305678298   -1.31724714992283    1.48358014315476
O           0.49926520416153    1.97569326478375   -0.51813439465775
H          -0.28829875396428    1.94914237953866   -1.15784369100543
H           0.08306830255134    1.55884178357209    0.35639326558274
H           1.12418748944924    1.17541060129939   -0.84352000041770
