    19
        -40.91624658
S           0.06074206794853   -0.91482739092038   -0.01233956100180
O           0.25763732234241   -0.65882027591095    1.39304195612526
O          -1.05608816962632    0.01307229978531   -0.52646290395657
O           1.21895795403204   -0.78708683691363   -0.83780380996422
O          -0.53500087086272   -2.32359535096310   -0.20797986147321
H          -1.12301334581902   -2.49624208107536    0.57368366452961
O          -1.63798379910490   -2.34518229998749    2.13702557445023
H          -1.36386653201024   -3.03863716716352    2.74242303524378
H          -0.99116802917969   -1.61964610603334    2.21954987450622
O           1.77382977550539    2.02043457964344   -0.55982969799782
H           1.44646639784028    2.00840628773329   -1.47939645289260
H           2.09887277010047    1.12492044113448   -0.41288901282084
O           0.55181954703275    1.04686321677650   -2.79206760186666
H          -0.40443509331498    1.04062615424189   -2.70759551095122
H           0.86259250032617    0.23920069892710   -2.35531992400653
O          -0.44030518075151    2.01760917804696    0.83644685406929
H          -0.18516258208262    1.54517025774064    1.63622208874365
H           0.41077603165733    2.22125435432105    0.35960594223675
H          -0.94467076409331    0.90648005065481   -0.00631466296311
