    19
        -40.92071441
S           0.02271658457680    1.35632823259045    0.59814204474034
O           0.52761852942375    1.11555878564033   -0.73388716859459
O          -1.22875042556693    2.07752751932990    0.63291273583239
O          -0.05541356129866    0.09290893739570    1.35815263645541
O           1.08442869426244    2.24664934415061    1.35749447454584
H           0.56797174110471    2.71292326902587    2.00875203479577
O           2.03606615505881   -1.54298738340835    0.97678924698024
H           2.06359452353221   -2.19126773195648    1.68203105617413
H           1.36788872822006   -0.87714520721825    1.23459527094158
O           0.99021840970586   -1.36493829047167   -1.46679009973020
H           1.00122984661372   -0.38136451144349   -1.41399859344185
H           1.58594503971438   -1.64086358980227   -0.73832557482305
O          -2.22693087201357    0.67412947487341   -1.33868440686322
H          -1.65381941771051    0.95832962222368   -2.05683309608235
H          -2.03084112520443    1.29238192859018   -0.59548045083772
O          -1.19692643768580   -1.40758273085011   -0.30924617077559
H          -0.82756004864015   -0.90240957605088    0.50427263917178
H          -1.74509744152774   -0.68319861786120   -0.79480729247439
H          -0.28233893257104   -1.53497948475542   -0.90508927602397
