    19
        -40.92007393
S          -0.07440984076656    0.06473437657479    1.39221658472367
O          -1.20498992323724    0.36932831365001    0.49192287639198
O          -0.20057264186678   -1.25647972154106    1.96531282962115
O           1.18491844894677    0.33356262492276    0.74951068838190
O          -0.21152750929533    1.09872291444900    2.58619374392882
H          -0.83921089542543    0.68587286642672    3.17182693651592
O          -0.20497019814653    2.59920882253824   -0.64017122170469
H           0.35311405438589    2.98833103739954    0.03602375434060
H          -0.70983055353778    1.89370753071934   -0.19427188691783
O           0.24961016171233   -2.70764838467684   -0.15291339018972
H          -0.19983959500074   -3.54740836082546   -0.03430142714502
H           0.16965377554706   -2.22421769278457    0.70655037576605
O           1.22625054893558    0.71296229197743   -1.85016315555837
H           0.75758230031311    1.57093206740456   -1.72562017034436
H           1.54511411520139    0.51457785013068   -0.94162818188145
O          -0.67404354121615   -0.85227637967772   -1.63570279293948
H           0.18348770827133   -0.20495282710869   -1.89050329051821
H          -0.28519699086155   -1.69068489712104   -1.20518951609751
H          -1.06513942361637   -0.34827244196470   -0.82909278689965
