    19
        -40.91346206
S           1.21520223660371   -1.23456602426965    1.09262342697665
O           1.42578921843020    0.05272295045919    0.48986616729048
O           0.42528409975974   -1.23574754299636    2.28426657174675
O           0.67161699254955   -2.22248527849173    0.07379486100000
O           2.62464511014626   -1.84057567710889    1.42535411577569
H           2.47974403903489   -2.59386007153009    1.99444961645574
O          -1.12160258928011    0.73541006371608    1.04803966914155
H          -0.15662277130698    0.71791337121127    0.91582662986530
H          -1.25305561497688    0.30798773158048    1.89977722584744
O          -1.23941081987651    2.68062621041315   -0.97764769673194
H          -2.11598166386785    2.75362917601663   -1.35891587354954
H          -1.33325825828373    2.19812762535724   -0.14403483601163
O           0.49182101298442    0.83282896665015   -2.03859277856787
H          -0.00804273494668    1.64147029905759   -1.81718974251600
H           1.12585200879291    0.71216076825274   -1.31837178441375
O          -1.11272298568569   -0.97269388427298   -1.08659747502118
H          -0.55230311533754   -0.35394552709253   -1.64575366150042
H          -0.13519826380437   -1.76498552008184   -0.48503922431972
H          -1.43175594093833   -0.41401762688414   -0.35185521146079
