    19
        -40.91197255
S           0.85702525430388    1.29470070242958   -0.85822006040107
O           1.81389436874108    0.18941533618784   -1.29125671672054
O          -0.49583431812598    0.86705056629237   -1.12399805810734
O           1.14173877050307    1.75745133122060    0.45205313969578
O           1.18758339120099    2.45890125141522   -1.85896325519766
H           0.81761307664539    2.22592131389436   -2.70788676991998
O          -0.10402050813842    0.10503764884890    2.25530281090063
H          -1.00819740125834    0.39417933252880    2.03548903627282
H           0.47133750089782    0.75025647599010    1.81743583971466
O          -2.35493804103150    0.84367474493827    0.89230339370438
H          -1.76426144247543    0.95949597856566    0.12952999840175
H          -2.99699900860553    0.17449900285035    0.64796048768632
O           0.18528971528754   -2.25932650454826    1.14937236737082
H           0.94077431968380   -2.67340173958723    1.56862274535536
H           0.05321528828055   -1.39080628062989    1.61668109105876
O           0.27099046202190   -1.74408959446816   -1.39508626935833
H          -0.51139965940354   -1.18922569524966   -1.50396253403162
H           1.25288570270462   -0.70329223649702   -1.37971310636507
H           0.24330251871280   -2.06044162424302   -0.44566416017792
