    19
        -40.92122941
S           0.40578356666403   -0.57555421051512    0.88380986289102
O           1.26359782773504    0.31394844583459   -0.05769723200521
O          -0.97234930445855   -0.46196441853388    0.46460567134209
O           0.91386577646941   -1.90979819324915    0.90822817580360
O           0.60871625543389    0.09013554549415    2.23833203196774
H           0.29826983095828    1.06362467573470    2.19562049653213
O          -0.54747169622979   -2.65025416241240   -1.22539188766856
H          -1.32873908682497   -2.17328149888760   -0.92599916046813
H           0.01338475521710   -2.71783178849291   -0.43305304594380
O          -1.18261395015616    2.03161885078638   -0.41630960907199
H          -1.27505763098140    1.08337080619170   -0.19166684651142
H          -0.51451344701480    2.08030311216132   -1.10375605620489
O          -0.28927301107460    2.45911440736601    2.02197666377028
H          -1.06125576832826    2.56083511165630    2.58395559740259
H          -0.62070645622862    2.46257719233699    1.08650645338544
O           0.96803344293900   -0.81058697650341   -2.33012219366392
H           1.76957705488699   -1.24034101214616   -2.63775079553052
H           0.34455685954804   -1.54004928998738   -2.06764641837921
H           1.20619495145737   -0.06586659683125   -0.99364170765960
