    19
        -40.92174057
S          -0.33618545512480   -0.49046384977530   -0.66894144901469
O           0.32868725500367    0.63531333111881   -1.25687380091544
O           0.55024007743490   -1.52951841522245   -0.18871135796616
O          -1.26548878542546   -0.04083441393163    0.44327826573698
O          -1.29502849607886   -1.10413144401529   -1.71209515653312
H          -1.51577012815677   -2.01115261697727   -1.37607607012872
O           0.14485606634987    3.11889141794718   -0.23661178738586
H           0.27800298818391    2.29760091468761   -0.74692202389318
H          -0.60215697460126    3.56839811674358   -0.63514315768151
O          -1.26177662606974   -3.42519232330724   -0.54985061450641
H          -0.93660817341908   -4.17013358488513   -1.06152166555383
H          -0.48292146983653   -2.98800700121221   -0.15853738364884
O           2.15073833042120    0.27516802011138    1.03888802306663
H           2.44175401858852    0.78792572869278    0.28023478134595
H           1.73640016980317   -0.52459607141499    0.67492737700989
O          -0.02766014590416    1.53276617653014    1.89056304271428
H          -0.78658965472149    0.64000184807081    1.14387713718904
H           0.86427493792744    1.11597927319882    1.83023270755936
H           0.01523207501870    2.31198489509958    1.28928313253404
