    19
        -40.91955451
S           1.29861030213186    0.32630216183162   -0.87822163039244
O           1.52529208776733    0.87349021484640    0.46122395994084
O           0.96428763577744   -1.09381404804640   -0.79555946618962
O           0.33896773383471    1.08033142423152   -1.64203904890079
O           2.68721336487116    0.43478939084210   -1.62848971137546
H           3.33111332206368    0.17034867180790   -0.97800612464839
O          -1.60130173914014   -1.32823534646479   -1.10074291058483
H          -1.79627513260723   -2.25230221931559   -1.26692881987231
H          -0.61523392353854   -1.22857466042320   -1.14042931786790
O          -1.86468949751321   -0.09485233112852    1.09697723236957
H          -1.58344376491882    0.89310906288470    0.82649548396862
H          -1.93089451795586   -0.60104945548333    0.20781177338779
O          -0.91565883678811    2.10367755592282    0.36650017488475
H          -0.59402689205538    1.85750408568129   -0.53828154827577
H          -0.09380745840675    2.17935357538944    0.86996727221586
O           0.37467929794539   -0.96036134992226    1.85841196098955
H           0.57188253756443   -1.66855052542620    1.23226064462263
H           0.90781712758089   -0.20310852559433    1.50030811235886
H          -1.00453165662515   -0.48805767162929    1.54874197337831
