    19
        -40.91971862
S           1.24639925869402   -0.59558243630715   -0.31010000571228
O           0.31243164168682   -1.61701399028389   -0.66928655343048
O           2.63789605025661   -0.88469798425630   -0.41203038007921
O           0.96543559092132    0.69254989319062   -1.09386447191890
O           0.90725105255498   -0.18206528042010    1.17000023133555
H           1.62654490258270    0.46380860417526    1.38864839189733
O           2.98756638208287    1.34522063920648    1.00014163021793
H           2.81552763815048    2.06268876104662    0.38425802211109
H           3.29887000586296    0.59375848687245    0.46607910633019
O          -2.33928626549805   -1.47567304439650   -0.68431000241381
H          -1.37301783882874   -1.63104656019718   -0.68441662052982
H          -2.74258554323484   -2.28948670776742   -0.98963334456134
O          -1.87726172618219    0.33721329675361    1.43106199022616
H          -0.97222472115406    0.07866461466087    1.64438990531286
H          -2.29591578888135   -0.43904561933687    1.03240446047534
O          -1.49881619359974    1.14740654587707   -1.05654616541417
H          -1.94177197225344    0.35524009161713   -1.39602310149231
H          -1.69958352954767    1.12467481967845   -0.08816273611590
H          -0.05745894357863    0.91338587990439   -1.13261034620565
