    19
        -40.92079049
S          -0.29824327671137   -0.55171232667081   -1.34748121795569
O          -1.20945336927592   -1.00806732042604   -0.29603529953159
O           0.24490966534978    0.76322180562730   -1.03628974193880
O           0.69629098592014   -1.53789923237579   -1.68270685671786
O          -1.19501013673513   -0.33201252346773   -2.63286689096476
H          -1.44953676879422   -1.21631340977183   -2.87753433021854
O           1.85263038331876   -1.98274191196056    0.65146497738079
H           2.71249272870988   -2.37320170566009    0.48419210642707
H           1.40635402905217   -1.92112816758260   -0.22093378064277
O          -1.40100289082375    2.40212118499365    0.18186122537951
H          -0.84848106269924    1.88149331377996   -0.44792605766336
H          -0.94729797829322    3.23618038282099    0.31864459573918
O           1.35525421077029    0.50274425399117    1.37306370400819
H           1.65746233367319   -0.43395633194667    1.31208823061938
H           1.19950351704809    0.75895492571587    0.44140792796103
O          -1.10715544285568    0.39407130332744    1.74148941490313
H          -1.25114802359987   -0.29134461966960    0.95416772447955
H          -0.04182751736240    0.43837930940365    1.77634809424490
H          -1.37574138669349    1.27121106987081    1.30704616449314
