    19
        -40.90557194
S           1.60676195743903   -1.37586571026649    0.46415300672356
O           1.15604882335160   -0.70852844721156   -0.77220528197395
O           2.00791852720833   -0.34058439366017    1.43545442344224
O           0.68370185945444   -2.34052657251606    0.95932441185353
O           2.93892545881755   -2.14117641218585    0.08925722546614
H           3.58779486728269   -1.47379318575272   -0.11976342776158
O          -2.54684986469572    1.25148732370692   -1.51023753715116
H          -2.32526732953819    0.34008853633851   -1.27290284046704
H          -3.27457020631243    1.20977991978529   -2.13128799241355
O          -1.29084973742937    1.54988681450362    0.87888829850305
H          -1.42176976410933    0.58149523985788    0.76829503445508
H          -1.80375648477375    1.92970302499909    0.14781481973732
O          -1.40372578649122   -0.94955263910742   -0.11434841651107
H          -1.32358823711334   -1.71291981239960    0.46856539419105
H          -0.52712405229075   -0.91409001304130   -0.54674854150528
O           1.13306589678505    1.58793871147522    0.24802507632711
H           1.09609488504757    0.92265182345361   -0.50263523669615
H           0.12301445970565    1.69332730378943    0.56360873579492
H           1.58417473767590    0.89067849821578    0.94674285791497
