    19
        -40.92246920
S          -0.87966394945995   -0.60557017153365   -0.05703725686550
O          -0.82401915753291   -0.21448574861527    1.31905083092130
O          -0.08304480021812   -1.76054994959696   -0.40028044581371
O          -2.35011015708844   -0.85934719507854   -0.45436860281243
O          -0.48490784767524    0.55707853305517   -0.96409209141828
H           0.42656744428817    1.06786604229006   -0.62221222334758
O           2.09287610830488   -0.82729113470634    0.89814980749649
H           1.43843508982106   -1.34936472942957    0.40325884135804
H           1.80354197614340   -0.84175420253023    1.81391394815044
O           1.55461065140405    1.58902961073059   -0.04358880988075
H           2.00427835049640    0.76175054454495    0.25552849730953
H           1.19976407131738    1.99580208639356    0.78228809020786
O           0.21590818246899    2.10898161637116    2.18476618603679
H          -0.22011954311798    1.24776421704085    2.03999196053671
H          -0.48483279058594    2.75548987202209    2.28457864155300
O          -1.39106914789112   -1.62448803744897   -2.74697319736298
H          -0.70876339278264   -1.98501939680811   -2.15743231683218
H          -2.29260725969124   -1.18146739910750   -1.38876647639254
H          -1.01684385819802   -0.83442455759829   -3.14677538284023
