    19
        -40.91416443
S           1.67377193879677   -0.01469618954963   -0.32390821528380
O           0.72411234134160    0.98763060057331   -0.70494035686053
O           2.15207023009645   -0.02019350534810    1.01897414012662
O           1.15435009456838   -1.39572925920292   -0.70132613690433
O           2.92639377388313    0.17418445139800   -1.26789605745694
H           3.67862902852672   -0.22397487863880   -0.83415742410426
O          -0.44276043750831   -0.21664386404490    1.92555665907929
H           0.51356510944926   -0.29316924219105    1.81703874092346
H          -0.62224864492851    0.74333246617018    1.92577013945199
O          -2.26478065892552   -1.05670515699053    0.18003405632768
H          -1.60713372488957   -0.76255855938149    0.85578599057599
H          -2.53986707690525   -1.93558914824367    0.44555797833592
O          -0.78217502731857    2.36628097808734    1.13541905130964
H          -0.17628670378753    2.06602193442095    0.43899600282417
H          -1.63886812336960    2.48469805371630    0.71985090482429
O          -0.86943062159066   -0.81912266167996   -2.01178094121639
H          -0.66170896082363    0.12393235992645   -2.01856677583192
H           0.31219809208138   -1.26787081490220   -1.32687982046013
H          -1.52983061937528   -0.93982757471982   -1.27352792610655
