    19
        -40.92129506
S          -0.45393693379116    1.09837306392732   -0.18288325010491
O          -1.54156038684520    0.20197374761536   -0.56199326721382
O           0.17234905389253    0.58763077363480    1.06477690393223
O           0.53058147667165    1.28895813523673   -1.21510273600542
O          -1.05841589470218    2.48535079938157    0.17401865945415
H          -1.72350949791803    2.27014534433565    0.86157890649363
O          -0.51255527711530   -2.16367420750503   -0.92827971288760
H          -1.16620502934175   -2.80355168414592   -0.63885171541107
H          -0.96032216319070   -1.27970797302442   -0.92138452353039
O          -2.49009475429806    1.01109116965471    1.81951649457841
H          -2.51729339742577    0.49860560525632    0.99543803369738
H          -1.69287771525043    0.72057880618268    2.27564076614893
O           2.74221792925998   -0.08799305471691   -1.28573776681299
H           1.94003282269585    0.47337157419416   -1.43024254333369
H           3.43894026310184    0.50901804398644   -1.00468109435230
O           1.47580110105130   -1.40570399347188    0.46214790085985
H           0.75409891833405   -1.87649398675525   -0.09018769924917
H           2.12010253792881   -0.99067901217854   -0.22983038196474
H           0.94264694696573   -0.53729317160883    0.83605703570158
