    19
        -40.91317287
S           1.32143448448204    0.93625708004673   -0.07157599448098
O           1.34917991364588   -0.13799959268295   -1.14610076954874
O           0.01827039458624    1.55157181491903   -0.04104389453446
O           1.84576094054992    0.45500719803859    1.15682109378676
O           2.32670825714269    2.02651009077227   -0.60958091633346
H           1.88357673771707    2.55427842078730   -1.27173180157342
O          -0.17855034113253   -1.47126948539232    1.22014517624603
H          -0.62184155886715   -0.81610403759903    1.79460685372359
H           0.73587533217128   -1.17401559776137    1.17097680231438
O          -1.70372067891994   -2.07745995436895   -0.88580092051693
H          -1.19761211409227   -1.90931837356337   -0.05864731858243
H          -1.40949171225035   -2.93012905331520   -1.21028577375411
O          -0.77827280341976    0.84605989795725    2.48890567698611
H          -0.66289356251267    1.26830940357458    1.62438403639231
H           0.06484275361950    0.94111516581786    2.93929577965188
O          -0.90759933809217    0.05626160014477   -2.13057873638542
H          -1.32916730660123   -0.77788889229188   -1.77066312781224
H          -1.17436512609775    0.76435704055865   -1.52836373313546
H           0.41786572816865   -0.10554272589441   -1.67076242247971
