    19
        -40.92267749
S          -0.04140039633874    0.10683306945962   -1.05926622950767
O          -0.67117489233369   -0.97788591723840   -0.26562113716509
O          -0.40774147162429    1.40104328097710   -0.53058741089068
O           1.39839123387308   -0.09776864471606   -1.11547669522793
O          -0.62503565757992   -0.01274710113933   -2.49461178692847
H          -0.30618014231269   -0.89458037715134   -2.78950587089413
O           0.60807988866194   -2.32650811537347   -2.40831306686103
H           0.09712321438347   -2.65756011169239   -1.66246659301985
H           1.28839433766800   -1.75235185086899   -2.02184606590275
O          -1.70603441333700    1.70661792982556    1.71175320003785
H          -1.26937475743562    1.76151002209211    0.82605151635111
H          -2.64727195228257    1.62874373546157    1.54447375354672
O           1.84701785116472    0.73153504113153    1.32992128889020
H           1.69772852840326    1.67842669948924    1.25852172732472
H           1.85735969785814    0.39808750253742    0.40102664230524
O          -0.30747035495770   -0.38065222721794    2.08740342953700
H          -0.51073133988986   -0.76574168495992    1.09140739237969
H           0.63198964067498    0.02377257149268    1.95849311049875
H          -0.93366900464175    0.42922618817994    2.13864279534138
