    19
        -40.91624672
S          -0.33292388008546    0.84760204718522    0.11149548634366
O           0.77031930099024    0.32995588831846   -0.83055759125253
O          -1.54649401608449    0.11817639122078   -0.16146920832710
O           0.12492118901833    0.81346480204453    1.46365306978958
O          -0.50032516248351    2.31906971035244   -0.31830287450900
H          -1.09476599485432    2.31847555907364   -1.11393423304231
O          -2.28888636369858    1.74939929166379   -2.10534282001326
H          -2.28111200793491    0.94312410496852   -1.55629148755807
H          -3.15384290604993    2.15390348938323   -2.00173330264533
O           2.70925078612347   -0.15819256568361    1.35624380756651
H           1.94571738323587    0.40476056842496    1.55512296186077
H           2.89840033918754   -0.02606501241858    0.42437909509680
O           0.72303620424509   -1.98173853217477    1.74893544637853
H           1.63056274085231   -1.62249253599737    1.73433364959855
H           0.18178176350705   -1.24445146818916    2.05346699827325
O           0.10490101184819   -2.08049736822382   -0.79242162125271
H          -0.84856335420950   -1.94345659795094   -0.78322768163165
H           0.59608635993912   -0.68949660227218   -0.93953486711464
H           0.36193658647252   -2.25154118978948    0.15518519243138
