    19
        -40.92079053
S          -0.62172711975022    0.48092520397503   -1.26122442233283
O           0.60083151468703   -0.29856421304636   -1.12494151947217
O          -1.58243868532897    0.14327591031244   -0.20901654509872
O          -0.40777471011240    1.90012157400175   -1.37921940808912
O          -1.27349209764877   -0.01119795595745   -2.61699394119018
H          -2.00697176975587    0.58377086340343   -2.73704793263845
O           1.44798831069221    0.17083331062894    1.35846822385654
H           1.14275972246114    1.10289046769495    1.46112687566461
H           1.43271817073653    0.02539400943598    0.39074171519764
O           0.36927530699497    2.55689518721416    1.05981280420477
H           0.83143306066911    3.39555785037511    1.00579446911637
H           0.00639041007209    2.38674719061095    0.16354021975589
O           0.27979363140865   -2.75931449646353   -0.27631192824854
H           1.14165938336993   -3.17916680416569   -0.24168512214555
H           0.39542239338618   -1.92145860219023   -0.78381743080866
O          -0.59311888874749   -1.24029887085505    1.58956565783422
H          -1.14428426149302   -0.65258386092321    0.91038228189951
H          -0.31491571156500   -2.02515820613040    1.00913885802570
H           0.29645132992127   -0.65866854792114    1.68168714446901
