    19
        -40.91790593
S          -0.50536496463255    0.79957035384285   -0.39944149184837
O          -1.50194803858006    0.93095582134935    0.62398097410123
O           0.84236419726157    0.65212031394356    0.08766817712693
O          -0.86145965018218   -0.33723964091520   -1.33949961092317
O          -0.56279123894690    2.03983782923538   -1.34496127436407
H          -0.36382311409350    2.80193395722304   -0.76179004714138
O           1.35983113783817   -1.92736892823491    0.84071474725292
H           1.44446426334340   -0.96210401187129    0.85645480034171
H           0.44999695493563   -2.09407689910323    1.14926307341994
O          -1.33088595034904   -1.72279245778756    1.24447029961734
H          -1.88994519801501   -2.13039252452527    0.57958375551685
H          -1.51183788453182   -0.77101659828708    1.20267381521370
O           0.05736888232509    3.22598274969850    0.91453227753342
H          -0.69218678001673    2.81543271602044    1.36069106276845
H           0.80350661339703    2.62998146699105    1.04354394384457
O           1.13791221121026   -1.77625479871227   -1.73039160558410
H           1.86845699506087   -1.20528307029365   -1.98171425646173
H           1.29284217579995   -2.01519533440284   -0.76367374093895
H          -0.03650061178694   -0.95409092415894   -1.58210490947684
