    19
        -40.91889802
S           1.47769265937692   -0.24087491885541   -0.05900798681894
O           0.77195729928591    1.05864572509372   -0.04240150497389
O           1.91809508057801   -0.60405985297389    1.27206700791016
O           0.69222677566948   -1.24190336812037   -0.73002374784421
O           2.78610226397782    0.00111029888801   -0.91152751501612
H           3.40203850985859    0.34341917981533   -0.27063988822182
O          -0.31127112583755   -1.25552801303860    2.44088449746321
H           0.58162028000211   -1.13479901751302    2.02966169697707
H          -0.19821160953196   -1.10729737292573    3.38225523103283
O          -0.71021711244560    1.44469596810574   -2.24888911655203
H          -0.92318674140858    2.37696348270175   -2.31175313651297
H          -0.04218691783161    1.35740517346624   -1.54020037071224
O          -1.82541371422369   -0.73551058425343   -1.20113037918193
H          -0.94263916408107   -1.17655923466177   -1.14704560715137
H          -1.66816686303545    0.00820941351225   -1.82217117213210
O          -1.46825078230909    0.44023620659855    0.93357907297169
H          -1.16845503425854   -0.26476905381672    1.60703147065601
H          -0.58438123658446    0.84511456589787    0.60906462731895
H          -1.78735256808218   -0.11449859738457    0.01024681009451
