    19
        -40.92174060
S           0.39028865386143   -0.10856972439243    0.79895752311816
O          -0.66049661791567   -1.07316991058745    1.04656343760652
O           1.16443916012065   -0.48818300201055   -0.44967910864874
O          -0.05552646368685    1.25179916399543    0.72250901681275
O           1.44213780415025   -0.22607205039089    1.92326226499229
H           1.51747184247239   -1.19507578809777    2.12221384532105
O           0.19960996306521    2.73672208262223   -1.50700629325605
H           0.07289081670852    2.34955378424912   -0.61995197125491
H           1.03895943977928    3.19929656727257   -1.48439787469550
O           0.99507790064111   -2.76466865079081    2.23263686434698
H           0.68780225519540   -3.05498864367218    3.09518721611449
H           0.20844793011174   -2.47591581127676    1.73385493899057
O          -2.25328731182906    0.04384697417704   -0.83549751884564
H          -2.36407136540441    0.92285921528469   -0.46354690337772
H          -1.86655945918960   -0.49660461431579   -0.12692445301039
O          -0.13008764001509    0.25999636117885   -2.41611281974234
H          -1.03697590167025    0.09907770810750   -2.06333973221022
H           0.00220514378857    1.23336302813767   -2.34149354330950
H           0.64767382982201   -0.21326668951363   -1.36723488894804
