    19
        -40.92218957
S           0.28909530331020   -1.11147288606539   -0.14307529669646
O           1.17775444806587   -0.20648108158312   -0.86504906249686
O           0.19533769058111   -0.73958519507769    1.26500228238063
O          -1.03216644422111   -1.17226394978987   -0.76796086719006
O           0.88199383479789   -2.54815526904207   -0.22925353785740
H           1.75539921256460   -2.43860088638112    0.20120824668690
O           2.85700722536390   -1.30974167501556    0.99089556920435
H           2.80335580396938   -0.67998110070422    0.25982369839117
H           2.18027063876437   -1.01937288165961    1.61662502744982
O          -1.56813638881407    1.09722855408301    1.75411861003517
H          -2.20177029699391    0.71083533622911    2.36250883574899
H          -0.83545757679022    0.43050432161836    1.65957928049025
O           0.02742561216903    1.96068954310649   -1.70278262478186
H           0.56696240104346    1.18987249844058   -1.37879048096911
H           0.11592702799450    1.96383554754955   -2.65832034255688
O          -2.10727318821770    1.04939719772671   -0.71124901637880
H          -1.76893922057534    0.04633301382128   -0.80514979791855
H          -2.00586252399064    1.20601242766322    0.30698128582147
H          -1.33092354902103    1.57094647508339   -1.15511181937077
