    19
        -40.91821034
S           1.22887894919640    1.52532317779422   -0.32522037532701
O           1.59016369388176    0.76076190828626    0.85925981562170
O           1.19448777898756    0.65179595490941   -1.51075514059762
O           0.02120838042618    2.29321061618723   -0.16536927272238
O           2.40901328337336    2.53760945197184   -0.59130289406316
H           3.15161212434120    1.95694178672854   -0.72651978265048
O          -0.38395570546258   -2.62843828688320   -0.02608786886411
H          -1.12180616566427   -3.20576306806455    0.17893349413865
H          -0.26612179915060   -2.02620016814936    0.74177848685341
O          -1.97171190826900    0.64173148316622    0.12127754779468
H          -1.38847561127482    1.43315601873537    0.02728512010981
H          -1.63521243220156    0.18505171451736    0.91169246217171
O          -0.28451361091643   -0.69601627247797    1.82476628125650
H          -0.12010506680267   -0.77358652711274    2.76603227272234
H           0.46400001389321   -0.13282442620060    1.47070583999635
O          -0.85491096274429   -0.70151847335373   -1.67489402982891
H          -0.62441376590610   -1.54873736531160   -1.16951205792390
H          -1.45869253349974   -0.14698127927211   -1.00890891243651
H           0.05055535777455   -0.12551622546796   -1.70316099624623
