    19
        -40.92071447
S          -0.97433865639857    0.99917493196712    0.49927099644191
O          -2.24694574832841    1.06997418250826   -0.18120212591420
O          -0.74855952647404   -0.24410359937493    1.19943240173674
O           0.14860443948551    1.29006947572760   -0.41416095123486
O          -0.96425371924174    2.15992760430231    1.57118491635574
H          -1.50714592140142    2.83796184513912    1.17900606912270
O          -2.03331006629486   -1.37774093069580   -1.08396383766167
H          -2.28604972867484   -0.45406612070707   -0.84711289925232
H          -2.08091233312838   -1.86855028911075   -0.25824728723444
O           1.38116929799142   -1.65781439949674    0.58801482746804
H           0.60030825354739   -1.28981498815766    1.06223078338039
H           2.07233775966764   -0.97478880971371    0.71864902546526
O           2.56284738153155    0.73042729077167    0.61340341398919
H           1.70096996070175    1.08178428115922    0.31360915810011
H           3.23635786660467    1.18928390363152    0.10919098689236
O           0.41857977413154   -0.92766414272475   -1.57258242876600
H          -0.56404065089824   -1.23246582072868   -1.51853686904274
H           0.36685995876003    0.05221564183834   -1.27088843277868
H           0.91752166841315   -1.38381007632309   -0.70729774706190
