    19
        -40.92071434
S          -0.15321844160049   -1.34868381901061    0.59392015490679
O          -1.18505151451869   -0.77227657409938   -0.23680383078978
O           0.57392833863976   -2.42839288437735   -0.03300350573188
O           0.75582571082165   -0.29826034294586    1.09415734501400
O          -0.85348495924250   -1.95229345151738    1.87522109868494
H          -0.25953715606721   -2.64250855189408    2.15644252673947
O          -0.49556115827489    1.95171670238749    1.84814671621913
H          -0.06927682748504    1.08006603648555    1.72715935187761
H           0.08067204270367    2.46212822769354    2.41887215391343
O           0.73861018909467   -1.14999292462756   -2.31142728331256
H          -0.18931156842341   -1.13140939504294   -2.56367038691243
H           0.78355718789945   -1.77290071281996   -1.54785193331622
O          -1.09109730141250    1.80462786924303   -0.74514988870987
H          -1.40737998288922    0.87892594256686   -0.63056240283657
H          -1.05412801986062    2.15003423635596    0.17154611100419
O           1.22757115781311    0.98243604081254   -1.02038014989353
H           1.13236703987488    0.19769310216336   -1.68112632039725
H           0.24788296681490    1.47817317694080   -1.00685167017536
H           1.21763227574935    0.51091734066363   -0.10863807635536
