    19
        -40.91790596
S          -0.80488266468101    0.00213575506312   -0.63654233539882
O          -0.68978121650538    0.25017630943374    0.77781545203232
O          -0.39015973747452    1.09218198944560   -1.47210371134112
O          -0.06558685604846   -1.26656497889161   -1.01909054197610
O          -2.28583024584825   -0.36838938386136   -0.96065154980634
H          -2.79283601113621    0.44414068206214   -0.75246666226482
O          -2.61379686626261    2.09964011110905   -0.12577702927336
H          -1.95424141516531    2.41855029396140   -0.75264940912241
H          -2.13655224162063    1.91002865881844    0.68957095357408
O           2.24301978426774    0.59680274397311   -0.94596182608999
H           2.44681818996697   -0.11577853344934   -1.55542792601608
H           1.38507096117295    0.95279509822483   -1.22447121196861
O           1.87277312478968   -0.13081985237487    1.65752867350461
H           2.27881018984083    0.18033014707287    0.82741012588641
H           0.98332617895739    0.25388806095685    1.64752595088588
O           0.80289933137190   -2.39780430300878    1.02703818382436
H           0.28315861340391   -1.81652904407375   -0.18483491885239
H           1.36098660374558   -1.62423052218268    1.35250761655636
H           0.07680429718647   -2.48055325228679    1.65058015583418
