    19
        -40.91664653
S           1.21201253222185   -0.36838215760094   -1.42366214731090
O           1.75654914601068   -0.13112603054631   -0.07936161968829
O           2.00804876703183   -1.21096148802130   -2.24657106880291
O          -0.20860558935660   -0.69464475640113   -1.33919704384228
O           1.22233863500007    1.08848986691720   -2.12288486951075
H           1.98474693038327    1.01781420606815   -2.68765457650335
O          -1.16027058275160   -2.12230714870097    0.67153883927536
H          -2.04682939825079   -2.36704766320493    0.40010970966065
H          -0.75608584606362   -1.67044189267200   -0.10095410068462
O          -0.75463239381368   -0.46427708774942    2.66821047888320
H          -0.97526125777563   -1.12416380604162    1.95993256220686
H          -0.10352355772863   -0.88816616597835    3.23092691375009
O          -1.20641684915522    1.63749062447662   -0.77636709925903
H          -0.97818828007655    0.72492991401788   -1.07944851965543
H          -0.80359236765629    2.22407551602564   -1.42157676940972
O           0.31444811529772    1.34501927422289    1.24100128359775
H           1.01980099292293    0.72325556488348    0.69056371519175
H          -0.37721493298329    1.59292088086109    0.52607385624979
H          -0.14732405270512    0.68752235923143    1.88932046604402
