    19
        -40.92267753
S           0.26579172642659    0.73566098813340    0.72240991317462
O           1.63791300625693    0.68359428690213    0.23997563614477
O          -0.66052623312952    0.92925703065460   -0.42091538332331
O          -0.10847692296761   -0.43232584447337    1.48691055879133
O           0.09735702943494    1.98437696493197    1.63213209519639
H           0.40121123581139    2.71997284694734    1.05531958119623
O           1.46400087648518   -1.75858565226973   -0.69491383101228
H           1.43185395102464   -2.28624709754243    0.10786978321069
H           1.70100792171724   -0.84726802509839   -0.39898798302280
O          -1.94818299086057   -2.11103382659407    0.70964290351625
H          -2.80801064178148   -1.78542237034576    0.98290314828172
H          -1.27795704283976   -1.54796095834482    1.17010558811328
O           1.03418046142269    3.20519854064423   -0.49244983738221
H           1.62845242624750    2.43885386074256   -0.45427592135874
H           0.30690625273256    2.93847614022637   -1.06398338013793
O          -0.91199914236011   -1.28224983539078   -1.45657696106123
H          -1.44849505739810   -1.73955728098076   -0.71233305149824
H          -0.86514882783797   -0.25431041767473   -1.10746544818084
H           0.06012197894684   -1.59042935193975   -1.30536742998464
