    19
        -40.91628507
S           0.67946004577755   -0.82240954780630    0.72097052974131
O           0.17441713919020   -1.32873762363442   -0.53660219023394
O           1.24240087682894    0.58369703416988    0.49098112064978
O          -0.24962039518294   -0.81673926882798    1.80366039899421
O           1.91187636736464   -1.65589913325019    1.14298341933860
H           2.38341655108839   -1.90836785987619    0.30920330141328
O          -2.06451034531501    2.28539740755317   -0.52118980165641
H          -1.96086697035244    3.21835992965155   -0.32549985087031
H          -2.14230669672896    1.83376915979239    0.34932100497315
O          -2.16119854573468    1.06061996695440    1.85629448179171
H          -2.95213057690224    0.57561566883653    2.10019892521086
H          -1.42637381464075    0.42054302323471    1.92020058806411
O           2.50899798831629   -2.29197878387745   -1.30822047931104
H           1.58260080937636   -1.99157489554097   -1.37299746615854
H           2.51671956848587   -3.22884629830422   -1.51880905649641
O           0.06195940582974    1.19172583379942   -1.62579992507481
H          -0.19129060057324    0.27248205271461   -1.77806129506724
H          -0.75842891489561    1.65342417669451   -1.30827401737146
H           0.84487810762182    0.94891917908623   -0.39835968853318
