    19
        -40.91716436
S          -1.54221325295152   -0.40705229572812    0.58639407952326
O          -0.56619042160169   -1.48097729235259    0.37415065093253
O          -1.01866561345777    0.58901457710705    1.50889654171298
O          -2.01712868021761    0.14185121515572   -0.65963283535852
O          -2.78273437790500   -1.06343265183436    1.32090184499005
H          -2.52877841808192   -1.02681213521949    2.23780535383717
O           1.66742696428542    0.71612731148540   -1.12276718036758
H           1.13517921044771    1.48385923508483   -0.65622530448586
H           1.91109162370766    0.08349512337919   -0.34894189511115
O           0.29083027188826    2.36090706478189    0.18831312020198
H           0.76379375910943    2.86435446923173    0.85490902222033
H          -0.29970998615451    1.72937447762901    0.68938910302325
O           1.89026075529584   -0.89363940791356    0.82029269450114
H           2.37313077324924   -1.71915287465997    0.74809271259621
H           0.91990723687814   -1.13065781627477    0.78631918755160
O          -0.12280460869003   -0.67944969684580   -2.17813428877446
H           0.94590198439203    0.17194966264726   -1.68435079926756
H          -0.07516021873505   -1.48710535381837   -1.64770559230571
H          -0.94413698145365   -0.25265361194657   -1.81770641538770
