    19
        -40.91505826
S          -0.54129211105175    0.82306512322477    1.12620691606398
O           0.75826777226699    0.99529910577411    0.50968828466852
O          -1.26094611773150   -0.35571782466652    0.43012819083070
O          -0.54036981744803    0.63878612626425    2.53052414557320
O          -1.42686068754619    2.02354989927502    0.70946229696620
H          -1.25909188029628    2.15844632786509   -0.25008148074559
O           1.79684089187628   -1.48504392582762    0.00295671826557
H           1.73729671270591   -0.54477385207219    0.23198841437723
H           1.36987762480223   -1.54869175598215   -0.86893098478727
O          -0.24096575241599    2.02671932285431   -1.66805922512919
H           0.38465093974008    1.64183234084491   -1.01913247205184
H           0.14532527984232    2.84933439509812   -1.97731091989931
O           0.00678124084514   -0.92743012483974   -2.05152659830499
H          -0.70507890989138   -0.93725856642640   -1.40091528629634
H          -0.00743956110959   -0.04611495683417   -2.43649658607056
O          -0.10291005192187   -2.19784401687553    1.64203923843096
H           0.07634235298384   -1.77461763713202    2.48735990398468
H          -0.91616619749827   -1.21467139601218    0.91499948623198
H           0.72573827185258   -2.12486855453128    1.08709995788320
