    19
        -40.91436415
S          -0.20158959446763   -0.40649878007615   -0.93075130374482
O           0.28535565686408   -1.12911413254292    0.26809541721516
O          -1.60263080953384   -0.07137306979053   -0.76876273210721
O           0.65231097099610    0.73414348464301   -1.21610963647530
O          -0.10170715530296   -1.39231099083174   -2.13313782953921
H           0.83338930494859   -1.37080199305749   -2.43715266371555
O           0.97856122500818    1.42206881363739    1.34449034386164
H           1.52715894927132    0.67683560963780    1.60360528014160
H           0.87078893294102    1.33035818134839    0.37719234729306
O           2.35601885371183   -0.63131821898901   -2.70614249291555
H           2.48103303995942   -0.24270922935673   -3.57513628378910
H           1.98718027432671    0.07096478309431   -2.13629348096430
O          -1.32939525179626    1.15472575448775    2.58553577896714
H          -0.43103742648110    1.32711285590082    2.19709918484843
H          -1.90492838740628    1.84212243511553    2.24337256184735
O          -1.80238412968535   -1.08294566423713    1.49508118069042
H          -1.68149255374143   -0.23267781359112    2.07567856844999
H          -2.12542399866278   -0.72459026190361    0.60575683863653
H          -0.79120792157499   -1.27399174326001    1.10757892153330
