    19
        -40.92037970
S           1.02354803842943    0.03935882961463   -0.33726093561041
O           0.68073911089335    1.12906422898542    0.66272853430308
O           0.64748745120869   -1.25113909562310    0.21627451598804
O           0.46465284501568    0.31775488570902   -1.62162232301587
O           2.56278331368565    0.09969791644402   -0.42439793143894
H           2.89742774026772   -0.34053072939442    0.39697901226667
O          -2.02617308934644   -1.16898451368259    0.40515015354668
H          -1.07158982832591   -1.31944159129082    0.26319933418931
H          -2.28345492888047   -1.72690619705945    1.14192851386285
O           2.86154380006651   -1.44441524313496    1.64773510228575
H           1.93931107914862   -1.60234413876361    1.37143942454969
H           3.34665152951471   -2.25730022775947    1.48559295947711
O          -1.74196899981809    1.79582275614496   -2.05939067791833
H          -2.34076386283150    1.22345879088680   -2.54382949971711
H          -0.87543993587943    1.34827647074231   -2.06856967798077
O          -1.76602011480329    1.48123340927513    0.57072142733739
H          -0.37757212202504    1.35145616993132    0.67832413640519
H          -1.88348805915583    1.78309593425946   -0.36329329223719
H          -2.05767398535145    0.54184234245179    0.57829122273487
