    19
        -40.91317281
S          -0.66142734498945   -1.39237336143088   -0.50077957818497
O          -1.10063949432859   -0.80537628451427    0.74032618555876
O          -0.69363736113746   -0.34105976135344   -1.59780820297745
O           0.57272289427598   -2.09397543185821   -0.49113208427678
O          -1.77587812238137   -2.41976483894400   -0.93767793579034
H          -2.63118667217826   -2.06850412753988   -0.69589494455519
O           1.89339406274231    0.31857760520579    0.00741532533206
H           1.67806964129021   -0.46207055068112   -0.51332517009961
H           1.84319433455057    0.01869469079412    0.93654981766814
O           1.19129727862079   -1.06721190181233    2.22683084938442
H           0.27853287423933   -0.96186376565654    1.91877315258452
H           1.47496483153687   -1.92849595646065    1.90979864155393
O           0.74797227823021    2.71281772007216   -0.28299278770422
H           1.10949236096561    3.10245272060988   -1.08077287626461
H           1.24345837892442    1.87484653674854   -0.13821725059435
O          -1.60389893796604    1.62182968018624   -0.40620145134658
H          -1.12191709893545    0.54944031416918   -1.18984235961902
H          -1.66520499746014    1.15530612382385    0.43867068263306
H          -0.77930890600741    2.18673058862627   -0.34372002330475
