    19
        -40.91966059
S          -1.02427092971891   -0.19939716311471    1.35789085651231
O          -1.18326235392754    1.24870412496796    1.15364668068669
O          -1.76860282370632   -0.94578533324658    0.35542133391147
O           0.36488011319868   -0.57837586960490    1.43477852210438
O          -1.68165909572612   -0.51420618905472    2.75317129775955
H          -2.58760362534973   -0.24912216627370    2.62737090139015
O           1.58222360241177   -1.56823311532615   -0.83455687589275
H           1.12921691559849   -1.57558901186338    0.02454492996389
H           0.89196823409744   -1.42257946000720   -1.49170095154287
O          -0.74835635767569   -0.33548246932856   -1.91304002310272
H          -1.43722169801251   -0.29899381520145   -2.57930009563550
H          -1.18879098347978   -0.64649519496028   -1.06927699162291
O           2.33856975134187    0.76830171221843    0.13640348684756
H           1.95473099196630    0.48644712145404    0.98324369810790
H           2.37022595419317   -0.07485347725892   -0.37794329375207
O           0.24695695118698    1.76313846416376   -0.79018243030887
H          -0.08985832324183    1.02665653793370   -1.39445648580407
H          -0.38071208182577    1.67401200985869    0.06374510519246
H           1.21156578747209    1.44185326575348   -0.43975965470836
