    19
        -40.92136409
S           0.42267387664924   -1.31671738614638    0.10468782051787
O           1.31034070716006   -1.74494482872021    1.15711517539192
O          -0.84246545190421   -0.79362794104000    0.56885737904298
O           1.07043491662511   -0.37358881318961   -0.82409172059861
O           0.08961722610247   -2.59650199125301   -0.77410764030554
H           0.85944001608955   -3.15049080636663   -0.68087671495221
O          -1.59989389457094    1.58230911925403   -0.23562577076866
H          -1.59004739188012    0.69418812575752    0.18917795441431
H          -1.57311349854017    1.36043201727785   -1.19263034064727
O           0.86810464272265    0.50617982263064    2.45365282971366
H           1.17024979097856   -0.36124830675703    2.10034033362973
H          -0.02557882475721    0.35159765006810    2.77227546692668
O          -1.00079993383184    0.19903641997532   -2.43289127025013
H          -0.16280370330033   -0.04952033639246   -1.99897830473315
H          -1.49278096716100   -0.61603678541069   -2.54580369839231
O           0.80553377749560    1.85843132886493    0.29042369005347
H           1.07643905622129    1.03997535702258   -0.26771565769516
H          -0.26546394845364    1.91500433822043    0.07117213077013
H           0.88011361446722    1.49552300634612    1.24501834809146
