    19
        -40.92079115
S           1.18564783955888   -0.71182365065965   -0.54433161133737
O           0.50768747337922    0.43955119154196   -1.12378486394375
O           1.12782146087271   -0.67591076128735    0.91827686243522
O           0.76410845171720   -1.97923371229727   -1.08306855287658
O           2.71062981730768   -0.52457771205237   -0.92370846206867
H           3.10804202439612   -1.34462161436531   -0.64791113145601
O           0.73743374524479    2.67973037191705    0.22113935267774
H           0.81335788995799    1.91060316132364   -0.39168638327151
H           0.26917160018054    3.36618329629127   -0.25825448116311
O          -1.95266281553773    0.38258804004971   -0.09924748723715
H          -1.20502801492258    0.47575534122957   -0.72391888611845
H          -2.07435766613417   -0.59294168754134   -0.02188813643410
O          -1.66833685359091   -2.23756888217112   -0.08307649917984
H          -0.74344082475636   -2.23557552501314   -0.41265530482997
H          -2.14294359723245   -2.87120797412246   -0.62449576864502
O          -0.44673752052471    1.02950008639865    1.77837129950445
H           0.24469455413627    0.26419507448524    1.56164414564779
H          -0.00137649510530    1.83895288962105    1.35783578237065
H          -1.23371104895098    0.78640208665495    1.10076012593323
