    19
        -40.91793151
S           0.98990494997082   -1.20663971132663    0.80746965432111
O           0.56687472907110   -1.47169709057317    2.16332714299385
O          -0.02966901193269   -1.47781797246726   -0.18483025088993
O           1.52758757922250    0.15515394698827    0.65691505418169
O           2.19524530704446   -2.17890015947446    0.48763568438614
H           2.77511756178420   -2.09483572477852    1.23969487942244
O          -0.88168575887614    2.07088346833155   -1.57926680772188
H          -0.33499422029783    2.76799672384025   -1.94728322191351
H          -0.54408428825490    1.21926267959977   -1.97117677130915
O           0.09470501802811   -0.19107987839659   -2.45451611824519
H          -0.40626676611476   -0.73694081956109   -3.06354433734977
H           0.14519878696806   -0.70463351059295   -1.61337603855621
O          -1.72371175803665   -0.30396088686653    1.65956609531014
H          -0.98213612850579   -0.77121982022874    2.10685267986889
H          -1.85807807825192   -0.81538023860607    0.85287448399309
O          -0.37365862292477    1.70014091340222    0.88032656380195
H          -0.63673926408458    1.90886398479745   -0.09887841352034
H          -1.04790338546654    1.01159246023171    1.24702072621319
H           0.52429333071076    1.11921165575561    0.81118901502507
