    19
        -40.91898896
S           0.33323189947801   -1.00895553779527   -0.28397663449746
O           0.78520452373157   -0.46422790591323    1.00421572688719
O          -1.10331583055023   -0.88961274251601   -0.42191144602698
O           1.03959207043960   -0.36515836262407   -1.39410006839920
O           0.73813709356517   -2.50888077277392   -0.32608586735128
H           0.46322138981144   -2.85442276367262    0.54951485418173
O          -2.16716653965778    1.15856778066799   -1.57553777104075
H          -1.87349214716968    0.28244056978114   -1.20511196872015
H          -2.73308415157552    1.55071780325112   -0.90663203326211
O           0.20750285534498   -2.71498139766558    2.24613571193774
H           0.34629658677251   -1.76508914520037    2.06284548249767
H           0.93589510105532   -2.99765847351654    2.80421853061802
O           0.56830409529260    2.11733784597582    0.87790393271025
H           1.39170266043377    2.47365020853909    1.21834607907348
H           0.61707942259098    1.13331774293351    1.01781256396609
O           0.22557410239496    1.94529253233156   -1.63355172093725
H           0.64532463471955    0.95886878735246   -1.66247859012705
H          -0.79241622766440    1.75417335203880   -1.72159064385472
H           0.37240848098710    2.19462045878052   -0.65001612766099
