    19
        -40.91103820
S          -0.13492766208553    1.02466409190456   -1.12657933741885
O           0.08786121986599    2.29633907221851   -0.46860284095440
O           1.04596038236792    0.15023143883427   -0.96172865385446
O          -1.34384538904436    0.35890842764008   -0.71317904216976
O          -0.24518992570449    1.29463711570159   -2.66882727145820
H           0.57751075106342    1.71947442347725   -2.89315491681186
O           0.22171378053440    1.67477991440070    2.03058150293053
H           0.81954058784643    2.29722574389882    2.45101535434941
H           0.08581199131273    2.00590432939998    1.10041373418448
O          -1.26533690099339   -1.67460678887794    0.87040597355577
H          -1.41668236056432   -0.95964763214461    0.19574429276527
H          -1.99711497776212   -1.62402287645368    1.48854900405687
O           0.29692387699882   -2.47337047314871   -1.64125943183307
H           0.61675079999312   -1.56593794267601   -1.56218453673764
H          -0.35456418652033   -2.59566766350246   -0.94648536217119
O           0.99283320518246   -0.63744548380606    1.37611883710428
H           1.15939677720428   -0.36645550316046    0.36058561278942
H           0.72444432757214    0.26811659825162    1.79698392941020
H           0.12891366334477   -1.19312680215659    1.31160313230883
