    19
        -40.92079058
S           1.09423683465663   -0.25909785815375    0.97174052146110
O           1.55024313208283   -0.01385637967896   -0.39789794498603
O           1.25454917027622    0.89224203978269    1.82186835068096
O          -0.24565064125962   -0.82972843569850    0.98350393284041
O           2.03145192338092   -1.39918546453434    1.54356730400565
H           2.87336987189146   -0.96494569524375    1.63947115529913
O          -0.77894381793211   -2.49242255821424   -0.97340356217681
H          -1.67408850114207   -2.81664624123004   -0.85545711726918
H          -0.53075155655080   -2.03999986292277   -0.13278589363727
O          -1.74415939980010    0.87991683008201   -0.40951582614297
H          -1.44142493314881    0.25141256927694    0.27683959660812
H          -1.29060725084851    1.72262464332121   -0.17317679511601
O          -0.11630470992248    2.73564869997849    0.51530265849604
H          -0.32022744615725    3.44418316512095    1.12850770895673
H           0.47244018310500    2.11656268260263    0.99889559362056
O          -0.26027965657772   -0.23910563325920   -2.07058401799934
H          -0.97793814473428    0.32023737195238   -1.51441634000959
H           0.60074042895295   -0.10129046847157   -1.47826925865732
H          -0.49665548804238   -1.20654941375338   -1.87419007623661
