    19
        -40.91234301
S           0.46692087143013    0.19267977044160    0.00026483955929
O          -0.57926878996106    0.03766588760211   -0.97757364334034
O           0.18488607977689    1.48294923507265    0.80532928898075
O           0.66711318695697   -0.89617688831639    0.90029529925230
O           1.79002737865359    0.53830787284971   -0.71409378107979
H           1.55298275612296    1.18038318776109   -1.43958793172784
O           0.51614226403523    2.05643246331081   -2.37155031321204
H          -0.16637097921095    1.37844064988663   -2.23389617621682
H           0.20377131673959    2.85795292088789   -1.94347142808024
O           1.66582955357977   -2.41387703027646   -1.21334830613916
H           1.34431626895968   -2.09985354932705   -0.36150023863155
H           2.42540974413781   -1.87037924191549   -1.43041473416514
O          -2.29184524598633   -1.11587036862366    0.78071421621002
H          -1.95024254028643   -2.01070773086714    0.85147106962077
H          -1.86765855283851   -0.73557508483919   -0.00597542211200
O          -1.21149587387904    0.45152464548717    2.64545693885015
H          -0.57377866750119   -0.15593783269539    3.03217110240245
H          -0.39066796028029    1.22339539382767    1.61351051521497
H          -1.78607081040696   -0.10135430034555    2.06219872461832
