    19
        -40.91668885
S           1.16148586351144    0.39161241861434   -0.46388941041247
O          -0.20963221387260    0.00059236351291   -1.14172578504769
O           1.51788881955545   -0.69673634320483    0.38622833693925
O           2.07583023823134    0.76356387496083   -1.49787645533470
O           0.80919248740629    1.64029135162493    0.34535672662498
H           0.21174890430795    1.40188984174478    1.14871450621611
O          -0.78968245284410    1.02899802770220    2.19611708933582
H          -1.45909187595167    1.70868024848100    2.30275028612688
H          -1.25417152608275    0.22204110138345    1.82775728271218
O          -1.84476811829399   -1.00711134653440    0.95811593324869
H          -1.48847725809574   -0.81616491350743    0.08174243891738
H          -1.30496409220391   -1.74776859269690    1.30021316947712
O           0.15051774936661   -2.69393683602154    1.61054427454535
H           0.75105212754584   -1.99667451322084    1.29234916582621
H           0.47194142933011   -3.51675564667669    1.23876762830115
O           0.17805020036581    1.69325414027309   -3.05708718436677
H           0.25197761159517    1.37259306650752   -3.95944935608835
H          -0.29787274056464    0.62542955142478   -1.90830688242849
H           1.06897483670186    1.62620220563948   -2.66032174459028
