    19
        -40.91668888
S           0.39502574398647   -0.21094060032404    1.23179532245787
O           1.61836758308242   -0.26389304438089    0.50054457411289
O          -0.70671514694790   -0.86560166956997    0.30973327824356
O           0.34537656554369   -0.85605866552110    2.50646672704096
O          -0.09559501563123    1.22780965330800    1.39653101551280
H          -0.00322085202618    1.75162904406805    0.51560631476571
O          -0.32214742200926    0.26828203120629   -2.27104504323858
H           0.60419568235227    0.02203751547048   -2.46610717356065
H          -0.59730516241102   -0.32043270781193   -1.55755390674867
O          -0.00743703186832    2.41418310796210   -0.82614073437186
H          -0.77431278133813    2.98037484758706   -0.93892879881457
H          -0.10495258342802    1.66246432880213   -1.48026469092017
O           2.26754609614958   -0.45776638497449   -2.12629764712189
H           2.18199366035454   -0.31589874605095   -1.16683785023264
H           2.73131440356459   -1.28943727192673   -2.23515383989012
O          -2.23412203617284   -1.32315471051781    2.34485274878084
H          -1.46310715203152   -1.06124820243162    0.92239980480194
H          -2.45892690294405   -2.22996267673178    2.56797512289425
H          -1.37597765828057   -1.13238584821992    2.77242479628343
