    19
        -40.92135394
S          -1.01770040040367   -0.99750649442636   -0.63591167045152
O           0.16299895994648   -1.57408441031054   -1.24041474015513
O          -1.17338811837092   -1.40430118726270    0.76120890384493
O          -1.08934486293445    0.44791313730954   -0.78093028947902
O          -2.26746068029646   -1.57367889847328   -1.40815060366579
H          -2.11967900684767   -2.51391482263743   -1.37927817194175
O          -0.75614741641367    1.85353976759783    1.43503532009169
H          -1.59945524313691    1.97207346351060    1.87581560365960
H          -0.95301591843156    1.46399992645510    0.55286653627758
O           2.11216868487873   -0.43022822176682    0.08596903623348
H           2.05031569307241    0.41601583652788   -0.41814683809690
H           1.54250107015468   -1.04208954086167   -0.43736881601632
O           1.27619504552286    1.49200441730904   -1.52417211519248
H           1.44110986912203    1.29390905414692   -2.44765073952060
H           0.35679766616790    1.21360083330655   -1.34549217673977
O           0.60514745021828   -0.21894545670317    2.03804308220116
H           0.18924413513150    0.70689170985400    1.95960744766723
H          -0.13965016347217   -0.82364508911269    1.63896139276322
H           1.37936324609202   -0.28155403446292    1.27000882851965
