    19
        -40.91668882
S          -1.11467590655561    0.68251457334986   -0.08909289992585
O           0.20738372104892    0.85758770822094    0.75577019986784
O          -1.58020997055001   -0.64281085439287    0.15745705364726
O          -1.98752580633524    1.77022296821416    0.22473087814639
O          -0.63358681354813    0.84640016745604   -1.53129916331660
H          -0.06328472229946    0.04096880790238   -1.82307570549248
O          -0.42685315899677   -2.95312168078326    0.98792267865365
H          -0.95234794523237   -2.22220257844053    0.61703334797702
H          -0.83135665631352   -3.17664040933278    1.82761086728900
O           1.73097169262308   -1.50049086751110    0.29110270848752
H           1.11770521983345   -2.20250075523119    0.58800638738207
H           1.39502322102110   -0.68587841548716    0.68469417927602
O           0.89494394499324   -1.06425243986550   -2.13822487116278
H           1.63137759174446   -0.75295370113440   -2.66943011045987
H           1.27274219509106   -1.33360097342173   -1.25085581460737
O          -0.00612672666081    3.43292563534036    0.67963806181360
H           0.35861146263859    1.83847240141775    0.78486491022291
H          -0.89848251305872    3.14571299364925    0.40249510049110
H          -0.11430883945168    3.91964741003760    1.50065220171277
