    19
        -40.91513794
S           1.12809401273302   -0.11578742764423    0.15353814081155
O           0.53864498136561   -1.10939330310039   -0.69109374673118
O           0.22146618616347   -0.03414608323868    1.42946467127631
O           2.48482484275492   -0.31793184710598    0.55363846941929
O           1.00054092600512    1.27529972567649   -0.46810339596007
H           0.00537856612446    1.51603556455434   -0.57661699044465
O          -1.12737055745101   -1.58689754460491   -2.83987788811237
H          -1.02510517574733   -2.48965768887204   -3.14562628522266
H          -0.37730784528116   -1.41105551065546   -2.25049215376900
O          -1.47656577708748    1.74845436349439   -0.53167457561533
H          -1.88453443483764    0.83531007085165   -0.55765305279354
H          -1.72553053848090    2.13147487148677    0.31255471506288
O          -2.23435770481673   -0.74577217113989   -0.48427150417910
H          -1.40361075308025   -1.06117872573158   -0.10540492937636
H          -2.19362848700336   -1.02784090972242   -1.41648063751166
O           2.16033161654800    0.93965727596474    2.84450429157063
H           2.63255045487378    0.61162126527536    2.05478254392083
H           0.77946456501791    0.39910231244040    2.12434829400071
H           2.49671514218563    0.44270577205768    3.59446402365191
