    19
        -40.91469036
S           0.36655602598547    1.22000567939638    0.53321640697635
O           0.09590299968360    1.15544859283064   -0.88384341391979
O          -0.56832820628882    1.93745070058867    1.32643561702761
O           0.48330523512377   -0.23395775677538    1.06511844441186
O           1.79376589276094    1.77172677877632    0.73553750388409
H           2.34586465924785    1.37547709549014    0.01094386199390
O          -2.12395393248268   -0.48555348728772   -0.79828780054642
H          -1.52884413009167    0.24372645896044   -1.02646329290422
H          -1.61178132346504   -1.28996986304939   -0.99615280659835
O          -0.12914852607399   -2.37810730214124   -0.69365513707817
H          -0.25088288454025   -3.15447584589773   -0.14357470852395
H           0.36261516765732   -1.73657170094554   -0.16367850475815
O           2.63477265297398    0.66947974512035   -1.45731459562485
H           3.01813065567907    1.22147578450865   -2.14351027912752
H           1.67013930348873    0.66915805492758   -1.59903917015078
O          -1.88720196632008   -0.46765018731895    1.80785866656100
H          -2.00770140087838    0.45268944204744    2.07060961921772
H          -2.21203906647382   -0.52824191096886    0.86696746878519
H          -0.45117114603813   -0.44211027843007    1.48883211042118
