    19
        -40.91893432
S           0.06088943231790    0.07611785745094   -1.73341819647094
O          -1.28042737007727   -0.19529291013220   -2.18457726658836
O           0.14068158451419    1.31884662226361   -0.95038674000362
O           0.71039848162910   -1.01886158600591   -1.04015734424999
O           0.92838984550349    0.34134600427818   -3.03604927563578
H           0.30765336393145    0.75980175808468   -3.62485330835177
O          -1.55305391460577    0.44185631937153    2.12939006589404
H          -1.69370394103965   -0.26698276706129    1.44536276480001
H          -2.25072036470139    1.08581680255208    1.99309678496056
O          -1.77795033793412   -1.28329070603496    0.16751517971602
H          -1.79666319416143   -0.87524588531162   -0.72203787802698
H          -1.01805019059538   -1.87241219090978    0.14008146955605
O           2.12424080300741   -0.82426628923221    1.12195691709141
H           1.62740241736565   -1.01967254711010    0.28571689569517
H           3.04751896486067   -0.74635071984205    0.87491005221441
O           0.73208792054608    1.27469445815464    1.43702278657229
H          -0.17523444195558    0.97162570742667    1.83455322767325
H           1.35417979951449    0.46063501990655    1.46834103946884
H           0.51236115189319    1.37163503213189    0.39353282559907
