    19
        -40.92343546
S          -0.37664896162284    1.61594242624989    0.30467310828514
O           0.48538331234661    1.43764886757796    1.47394444051712
O           0.39041028420156    1.78748253524049   -0.91084573433068
O          -1.36317310588804    0.55278848239727    0.19761920571375
O          -1.18537271446920    2.94579553841299    0.54873122399671
H          -0.49814642493926    3.60298530100003    0.59780411426407
O          -0.82914003806710   -1.86118809701162    1.20340200256795
H          -0.94823130262598   -2.35211168847535    0.38284592902802
H          -1.23085807298189   -0.98347869633660    1.03540667085089
O           1.64484695573574   -0.49175122419762   -1.18879741187590
H           1.35271497454306    0.45072032209943   -1.20674887167409
H           0.86666915854116   -0.98263825864867   -1.52646915565359
O          -0.88052238594852   -1.27346435239100   -1.66714785921528
H          -1.15678416279370   -0.54085950189883   -1.07316619716930
H          -1.26388041985794   -1.08283857402417   -2.52426605782155
O           1.49376663526740   -0.82301266163474    1.27652538954700
H           1.69714383110588   -0.76550093136659    0.22876918310698
H           1.16542361112887    0.14711597018695    1.48906305102755
H           0.63639881635104   -1.38363545716795    1.35865697882602
