    19
        -40.92158999
S          -1.30037841626249    0.42921831924167   -0.55095855826900
O          -0.53796044501555    1.34176295883127    0.31127369596234
O          -1.36076024821549    0.88479187483714   -1.91314456176591
O          -0.84169926880731   -0.94088656106287   -0.37757704483005
O          -2.78411366317642    0.43790700223813    0.00561138074733
H          -3.18867201960969    1.18624607639478   -0.42242623396865
O           1.26678596962566    1.31675329430556   -1.94000537697072
H           0.31692988217389    1.17559456807500   -2.12065255055489
H           1.30732451041546    2.10906726523485   -1.39936433379403
O           1.81758780342695   -0.88326754021703   -0.58541580638734
H           0.89855431467944   -1.19711864433532   -0.69720163829067
H           1.87003592484641   -0.10970954677307   -1.19549800940189
O          -0.46048503182829   -1.69546458559248    2.10053009068890
H          -0.22900959467237   -2.62639206125050    2.11022960433474
H          -0.80299890074589   -1.49870526181430    1.19682617266070
O           1.22229473954594    0.16268943378018    1.59473974794083
H           0.66155134940636   -0.57278088205090    2.01388712041776
H           1.65377097487101   -0.29391722560308    0.72683352247439
H           0.49124212930672    0.77421150573265    1.14231279898533
