    19
        -40.91285578
S           0.19907703987303   -1.40728157497050    0.95441422333928
O           1.01287479721391   -0.20253593419146    1.06956684439204
O          -1.22940146175043   -1.06428653992532    0.95146703584167
O           0.57119008404625   -2.29105500615863   -0.11451477966942
O           0.45158839805491   -2.19321160847838    2.31030100240065
H           0.13404697429512   -3.07810065407491    2.15332900021421
O          -1.02682988283069    2.54184187308400   -0.47704287125949
H          -0.27862825303738    2.03336441632192   -0.92472072402638
H          -0.74970407455848    3.45932389371036   -0.43890597526021
O           0.97717121604656    1.14867232323355   -1.30261360381291
H           0.69399233504992    0.43347848725281   -1.91059708727609
H           1.22269786586864    0.68841554672731   -0.48228244397108
O           0.24690445832401   -1.13426094004197   -2.50363993083531
H           0.82209218432097   -1.59585346513352   -3.11680408456792
H           0.28931825802081   -1.63395742022641   -1.66378438477589
O          -0.94984433422207    1.23862177112823    1.66306140197521
H          -1.08117988214169    1.84259649509992    0.80497469610531
H          -1.32019883956329    0.26268587455519    1.39252250938961
H           0.01483310700680    0.95154248210012    1.63526918179531
