    19
        -40.91892670
S          -0.86057267944523   -0.77433097025833   -0.84756777489298
O          -1.17056616733504   -0.61877490095757    0.55202348053359
O          -1.52832683666900    0.16480821552541   -1.72293528333538
O           0.59770978745325   -0.76969984856035   -1.06887492378552
O          -1.34349463913177   -2.22112201727357   -1.26479765417146
H          -1.37446070031964   -2.19670790190309   -2.21675602777486
O           0.96038869678556   -2.02308672264529    1.43525229158569
H           0.04891719367246   -1.80888067987083    1.17459308677470
H           1.45100031647815   -2.04696108946374    0.60846375225023
O          -0.69209134271101    2.46487093209988   -0.85216691650688
H          -0.65756011479076    3.06612685778185   -1.59941560290820
H          -1.13273344264850    1.63884709056207   -1.17884177344744
O           1.38228516303377    1.30362303938433    0.04466776490774
H           0.62948015379379    1.92155896392348   -0.27065791027714
H           1.17653874627096    0.41174727655789   -0.47352999702030
O           0.64874503413278    0.48816537030591    2.29227848250787
H           1.15883999577173    1.05367154228763    1.05686687512906
H          -0.28783933452209    0.37929717697542    2.06274097189817
H           0.99374019018119   -0.43315235447455    2.26865713853160
