    19
        -40.92267750
S           0.75176163665244   -0.69951919902716   -0.28250148081989
O           0.23493532875955   -1.62510858784293    0.71473272679596
O          -0.10806973954247   -0.57601801061606   -1.43745864432751
O           0.98437369863166    0.62808482586855    0.33907956199609
O           2.14156216896966   -1.20072096688857   -0.76474401162428
H           2.64682807028914   -1.28998473099862    0.07373490328834
O          -2.19033514432310   -0.63147223305061    0.72000995414066
H          -1.34288343965785   -1.12320114975622    0.83892755070106
H          -2.53330468615538   -0.91814483847339   -0.13091536499051
O           2.64919630009269   -1.14168510880780    1.80817179156835
H           1.76758789716878   -1.54774217228279    1.81188450828830
H           2.49707101775466   -0.19549766683647    1.89924901092562
O          -1.32704122596406    1.64125003661219   -2.07439821442318
H          -0.73513315694437    2.18956415799026   -2.59299916321593
H          -0.89672686246714    0.75330820860161   -2.00688226128805
O          -1.21948825569821    1.70184097036083    0.46320573445794
H          -1.36871115678953    1.86261612316304   -0.53794012807211
H          -1.75253494976534    0.84451967477748    0.67215497898858
H          -0.19908748101246    1.32791066720600    0.48668853760986
