    19
        -40.92453606
S           0.19206540589378    0.25239175832656   -1.49073153704862
O          -1.12493146509733   -0.35212474056835   -1.32586593863753
O           0.25860335173576    1.54214897497630   -0.81277486297622
O           1.26516890432708   -0.63619082408350   -1.09686974948781
O           0.38314817817120    0.52800066898865   -3.03430969903153
H          -0.36264695145716    1.06661494359385   -3.28240198655933
O           1.94561940374989    0.53134220669783    1.12136389795771
H           1.73056757090799    1.43490421763844    0.86101686678386
H           1.89745562304914    0.02841391307368    0.27152361596702
O          -1.65277305485885    1.18015887576668    0.89826369542169
H          -2.22361616119452    0.63638569329511    0.34280840856429
H          -0.95732627487593    1.50416289411199    0.27067130449158
O          -0.43597115070935   -2.21053072314939    0.35799817341935
H          -0.84207978866131   -1.62748449022596   -0.33096187467492
H           0.44259737916643   -2.39699879342359    0.00709765185674
O          -0.15612127642053   -0.43353709774792    2.12390096019728
H           0.77389364831006   -0.03788018955826    1.85160517924360
H          -0.84912682043654    0.25989760522160    1.76030441379170
H          -0.28452651159179   -1.26967488292927    1.50736146072412
