    19
        -40.91899943
S          -0.59372353643028   -0.18964198912839   -1.04470674978280
O          -1.09360687950772   -1.47682900421584   -0.61882249482584
O          -1.29752085917379    0.92505859648841   -0.44622042029881
O           0.86607812657264   -0.07658305164100   -0.74896823689373
O          -0.72539284327989   -0.11735928269008   -2.58992373071838
H          -0.20506230271200    0.67839638995810   -2.82784990138738
O          -0.68347406211130    1.50042870032645    1.98908467428706
H          -1.44775842703376    1.24053634189661    2.50846195855108
H          -0.96240476374061    1.42361668196009    1.03470424015825
O           1.14496545799603    1.73610683053367   -2.65927777520466
H           1.89986279542041    1.55988417871989   -3.22565856642543
H           1.28652215981949    1.23286884427758   -1.83587964881308
O          -0.45987887478603   -2.24802982267502    1.75822031041439
H          -0.12593859512133   -3.14421549353680    1.68211068915611
H          -0.82623442764479   -2.01580931366942    0.86093201199189
O           1.09704613269907   -0.25505765118194    1.70275979283172
H           1.11969098934343   -0.17460254795841    0.63798272331792
H           0.45188746807970    0.51931420434848    1.96429502922220
H           0.55494245494730   -1.11808259120458    1.85875609837078
