    19
        -40.92087798
S          -0.01971396136289    1.12200153684074   -0.42682178319630
O           0.69588793900304    1.54411592761960    0.73366139529755
O           0.76045688782879    0.42297897153173   -1.42636608146240
O          -1.20783147393519    0.24009357248490   -0.04655336617108
O          -0.70238146128594    2.34396953011869   -1.08053844952430
H          -1.13557774627365    1.97114987408870   -1.88655052927533
O          -1.46712121913681    0.65549374881671   -2.91161809972248
H          -0.56951040040135    0.33598162692633   -2.72271453368106
H          -2.06886159541548    0.08151263768388   -2.42882810128835
O           1.62869167011092   -1.83343428375430   -0.26607931231043
H           1.45883177745106   -0.99143518257458   -0.72970555881278
H           1.92402127442175   -2.46075143250489   -0.92832145377377
O           0.67628804535187    0.18870011826888    3.05576983346595
H           0.85295523181918    0.76132746025273    2.28543716930799
H           0.16237510190049    0.71515053410537    3.67093037894917
O          -0.40923342183879   -1.57069393694518    1.41885432384656
H          -0.91876877800956   -0.58956385703408    0.62101457800306
H           0.36336846061294   -1.87835420645645    0.89444473602569
H          -0.02387633083471   -1.05824263970865    2.17398484441082
