    19
        -40.91955066
S           0.44273938767164   -0.63479668752004    0.87294844601118
O           1.24577965222207    0.49219967336046    0.45793388262825
O          -0.96474065046481   -0.12412974966461    1.23310418475233
O           0.37109052413690   -1.71372795439950   -0.05520957466506
O           0.95233510860601   -1.14296980879641    2.23658358333097
H           1.01087612988286   -0.32070870656776    2.78559196638744
O           1.28412423945576    0.93389735823149   -2.22290570243997
H           2.17604633313610    0.74875761469738   -2.52251751043489
H           1.30403568281546    0.87500068865864   -1.25114763181303
O           0.87611458145793    1.34476831992065    2.97798740284288
H          -0.05332673738978    1.58925296289693    2.99787744568461
H           1.17228569902388    1.45920319928008    2.06023960884405
O          -0.66373597024118   -0.92758596796573   -2.45603950550577
H          -0.02486353052421   -0.20295710957730   -2.60899057646127
H          -0.24580959252262   -1.48511885412769   -1.78065435939274
O          -2.40107360052440    0.03292950652534   -0.81289334030531
H          -1.78896331971797   -0.28443944274485   -1.55151214818324
H          -3.11047355924950   -0.61184393808894   -0.75740574305436
H          -1.58244037851476   -0.02773111238753    0.39700958154738
