    19
        -40.90958717
S          -0.41341478647013   -1.46230912795064    1.14577770702315
O          -1.61578963945416   -1.28273251291939    0.38422707369882
O           0.80336577923074   -1.41670046301906    0.22584025664880
O          -0.23792570547654   -0.60489883505889    2.27315719326129
O          -0.37653909152162   -2.94928931780302    1.64440956252527
H          -0.67847241864865   -3.47485767622694    0.90715372643438
O           0.13071569193050    0.15556570062598   -3.14238662992463
H           0.84137733239951    0.11684257383086   -2.49378347451354
H           0.40735097918744    0.77437441269843   -3.82089708884373
O           1.04728995427671    1.75437455860126    2.13531825285276
H           0.65076691872549    0.89638170065847    2.37667662646373
H           0.41150200139495    2.42444098566102    2.39470191059995
O          -1.43674823613654    1.02152851673915   -1.01286776321616
H          -1.28878585176729    0.70657975572668   -1.91865118500201
H          -1.71433247407884    0.23702118589420   -0.50658554156469
O           1.08938873118586    0.95942216967513   -0.39086771157067
H           1.24373042437388    1.38532570112523    0.48549701256534
H           1.00087050878715   -0.39961420960797   -0.06238619030421
H           0.13564988477853    1.15854488343857   -0.62433375540639
