    19
        -40.91898067
S           0.32639842025541    1.25797052403110    0.98688295469844
O           0.46758947958399    1.38341423643311   -0.47437452025752
O          -0.85573594368311    1.91259088960241    1.48197307748180
O           0.44596745088354   -0.13649513178332    1.38226390765728
O           1.57962197780728    2.00505510188323    1.60158858004709
H           1.30214942576045    2.91014950815746    1.71582079654166
O           2.10489769558951   -0.90581704532033   -0.52760073790021
H           2.20316965913689   -0.04665916118620   -0.94929401154346
H           1.62243365900433   -0.71653707443521    0.30377488185942
O           0.12145640864236   -2.10569148562669   -1.72611656865022
H           0.97231486156713   -1.73726396484766   -1.35236909712042
H          -0.12721869403473   -2.83997179232728   -1.16082913368508
O          -2.15854292762922   -0.35475462576376    0.93970828476414
H          -2.21922975200889    0.56585088040371    1.24589123720461
H          -1.29767670957863   -0.63589839440997    1.30272465336971
O          -1.31364264574710   -0.04940816740530   -1.43168803995507
H          -0.78861472180657   -0.92489413580055   -1.65081748156024
H          -1.81878838231357   -0.22192802249469   -0.54545544466882
H          -0.56654928141314    0.64028786078279   -1.14208333832932
