    19
        -40.91965240
S          -0.49736831657766    0.25375312877765   -1.43423616554250
O          -0.95616279369959    1.09400578641467   -0.31677918722465
O           0.74948667950930   -0.41987829441415   -1.05983754265416
O          -1.49708114090481   -0.62946956371228   -1.94638009153313
O          -0.12274753428246    1.28006774876254   -2.57762299622111
H           0.20933925065573    2.04994606714644   -2.12400673547090
O           2.42543470503144    1.06009666655228    0.25340578919788
H           3.25906591076767    0.60521325087538    0.38725061472456
H           1.89866748443313    0.50455845027441   -0.37615924727280
O          -2.28837951450191   -1.42127511591289    0.45994195370144
H          -2.12549511376369   -1.26752818650527   -0.49201805076753
H          -2.74986363066889   -0.63925021760645    0.77073057619746
O           0.21754515180581   -1.64982319851156    1.22868646343690
H           0.54332924221738   -1.48941716402920    0.31771940787900
H          -0.75526512156810   -1.77870365907230    1.11056877068741
O           0.36560207404035    0.76455505674359    1.75629151105280
H           1.27371010514788    0.99922533992235    1.37865866688134
H          -0.27168446425734    1.00605313791851    0.95673059852262
H           0.32186701661939   -0.32212924361949    1.70705566440704
