    19
        -40.91440013
S          -0.24577753600990    0.52227688777053    1.58236305648762
O           1.01031485756606    0.98870169843381    2.09110048084164
O          -0.81832313572991    1.31065155063927    0.49901559948377
O          -0.23020819510833   -0.90410030341599    1.20543619969221
O          -1.29462963743422    0.62840401372968    2.77093497283782
H          -0.79780578642127    0.51252120940616    3.57655046214824
O           1.88175803761695    1.63856693786529   -0.36915458686676
H           1.05794800416872    2.06875557501041   -0.61601501784568
H           1.82305085856781    1.52497969965671    0.59472321318329
O           1.53241879724367   -0.96157133724038   -0.89321570690019
H           1.09225027662717   -1.11859304264332   -0.04179013057212
H           1.85955965531857   -0.03648019465492   -0.84172221793477
O          -0.44786752168918   -1.07026364456488   -2.52143560971482
H           0.41367383335388   -1.01697377410337   -1.99114887802883
H          -0.48087464014471   -1.94920483162947   -2.90427579737997
O          -1.92554885932591   -0.63157644300247   -0.55774507708423
H          -1.32128909323526   -1.02408861702864    0.19334862035810
H          -1.71432575803437    0.34214093275127   -0.31344445653979
H          -1.39432415737313   -0.82414630694922   -1.46352509616793
