    19
        -40.91996395
S          -0.49015551286253    0.69481189608057   -0.20368025916859
O          -1.56164190908541    1.34602011941037    0.67786157746451
O           0.78825176183257    0.70786442656139    0.46652906233654
O          -0.93075484890054   -0.62282369452663   -0.58423316068918
O          -0.43396013293072    1.63048469241051   -1.41255500324116
H           0.53065111912322    1.63144923064021   -1.75881477884946
O           1.11491606251174   -1.23993269384814   -2.23667932819749
H           1.20757236373546   -2.17829065887226   -2.41063405329818
H           0.32408086318684   -1.13400752989273   -1.67902589533306
O           0.23453928526914   -0.75484354308324    2.65642315337772
H           0.52612788480596   -0.25632461631596    3.42267900608572
H           0.57633662300221   -0.28207750654893    1.87417654927929
O           2.01427476708813    1.27997940821823   -1.95139354125979
H           2.21325536015226    1.18731078789749   -1.01052333445618
H           1.91434902152245    0.36910660072773   -2.28510565498007
O          -2.30985257410856   -0.76509857829679    1.84866324274191
H          -1.45901065087985   -0.90559376907232    2.32262616112706
H          -2.00915955280281    0.59360490299558    1.21424188044174
H          -2.24981994066619   -1.30163948448763    1.04944437662616
