    19
        -40.92174073
S           0.56468024498260    0.66734072079405    0.19486103951396
O          -0.49313675859975    0.89281569381830   -0.86963035138101
O          -0.04634492248434    0.63834441505064    1.50700846886537
O           1.35813272918155   -0.48465019813230   -0.11862088025173
O           1.45159865455054    1.92704900753450    0.09198587905717
H           0.95889829183862    2.64416102943086    0.56885862985800
O           0.76024880900373   -2.14408297344844   -2.15138318381194
H           1.13112678922975   -1.62373826309504   -1.41352321568312
H           1.19873880331371   -1.83825218341329   -2.94704970521454
O          -0.08304358379278    3.27918522523949    1.69047844131646
H           0.30991355913074    3.60894594008896    2.50261917051548
H          -0.36352494857983    2.36140205032562    1.86331242259979
O          -0.89239143671493   -1.90885733833048    1.15818898219193
H          -0.04816196217163   -2.35594003750260    1.05557917182118
H          -0.68322757510547   -1.02202733654014    1.49516146374862
O          -1.60733043139414   -1.26625614706557   -1.31739741016815
H          -1.05065756236377   -0.01016939856585   -1.10892496704745
H          -0.88320952362236   -1.72966878897656   -1.79835447554410
H          -1.58230919641005   -1.63560142721618   -0.40316949038196
