    19
        -40.92136410
S          -1.18150002262389   -0.34018458772880    0.64037218123824
O          -1.63138409030695    0.35822687610944    1.81875534834456
O          -1.17642003929608    0.52335032865770   -0.55367713930037
O           0.08960342779481   -1.01107834157833    0.79501460451155
O          -2.25496984006260   -1.46771077592358    0.32805285651958
H          -3.07087295671843   -1.11497666847125    0.67182752672049
O           0.75185860013195    1.44993128250811    2.08867279950047
H           1.25673121951485    0.69247561270356    2.39763026290836
H          -0.18953293876355    1.16536048286151    2.12528799606512
O          -0.14559118864740   -1.17884473351900   -2.35542643086756
H          -0.65208239762225   -0.54038219408799   -1.81873648330419
H          -0.51126978310102   -2.04218157292290   -2.15527736754389
O           2.00070246199425   -0.50831437954504   -0.92542655628423
H           1.48521622812393   -0.89700463872138   -0.18207073410469
H           1.48205252146895   -0.78734131444523   -1.71214002854067
O           1.02733684263266    1.71653121573151   -0.43414790718058
H           1.59944951043839    0.82516316815280   -0.71084284135419
H           0.06776143793844    1.39392392344171   -0.60640832361276
H           1.05291101710614    1.76305633676910    0.58854022629894
