    19
        -40.92136410
S          -0.41550917087122    0.45875162786557    1.24048402291801
O           0.11448975035114   -0.90491537936550    1.06403732501658
O           0.43649216952935    1.27375304372289    2.07037840052207
O          -0.74600861845057    1.05096818653217   -0.03614851593988
O          -1.78516216554202    0.26992662088492    2.02124303490244
H          -1.53986509097564    0.32724340817019    2.94032887016560
O           2.03743426545370    1.69668843474434    0.02002470552184
H           1.57873257256375    1.62205769377283    0.88747453942817
H           1.50154720895522    2.30419873231930   -0.49750179398998
O           1.73651425136480   -0.68801412940562   -0.83751469315135
H           1.18737959086415   -0.95103214112607   -0.01045650733755
H           2.03381993578461    0.26221138935872   -0.59851573980082
O          -1.71715744111903   -1.90178818894224   -0.62614891643829
H          -2.56360992274207   -1.54347215270589   -0.35368364261751
H          -1.08891851975090   -1.68218352017226    0.08757601621120
O          -0.28511574104697   -0.31903293153577   -2.22158816149986
H          -0.84893277509293   -1.08156944094039   -1.96392836449211
H          -0.58157845813807    0.38436361602027   -1.59974426828749
H           0.94544814881920   -0.57815485918936   -1.58631631114169
