    19
        -40.92161577
S          -0.12615842515470    0.77130827319144    0.72536306789886
O          -1.18390342069042    0.32189569532990   -0.28269890497056
O          -0.06515488305838   -0.19692399252697    1.79576949303121
O           1.12224138255116    1.03534199382695    0.07639816814443
O          -0.71261440828276    2.09334337705021    1.26242389259273
H          -1.53430153446121    1.81741275935439    1.74200843382731
O           1.53329212515367    0.56337919977439   -2.54844953009408
H           2.43937702056767    0.73242454886811   -2.81124200899862
H           1.43817461853277    0.89161488039988   -1.63552285685493
O           1.46738637515714   -1.85230498969158    0.30704596641626
H           2.23569336648019   -1.28442281271584    0.20792757583858
H           0.93930976547324   -1.44836707182445    1.01603702429466
O          -2.58642297874799    0.61919135431295    2.29726736647249
H          -3.06996864627255    0.26402436215935    1.54602086445149
H          -1.82677985026473    0.03175205942514    2.43970102186963
O          -0.14252020725330   -1.36828659032299   -1.76112692875465
H           0.45928736543366   -1.77515089678356   -1.09401596235726
H          -0.81144626802493   -0.42508837126984   -0.96994309287196
H           0.42450860287772   -0.79114376855474   -2.31296355992828
