    19
        -40.92022164
S           0.17344481125286    0.75491242711075    0.50508391086240
O          -0.28560997857940    0.99709520658344   -0.83844807967384
O           0.39231980888555   -0.64338705036110    0.79360759637466
O           1.45245486100533    1.53513609406290    0.80747430279986
O          -0.83139232487144    1.35304096628815    1.49543597319909
H          -1.75869131699804    1.28376005549636    1.06194875681738
O          -2.90864681457323    0.90234521039786    0.12487350250814
H          -2.49715935279145    1.15429566484922   -0.71016197207911
H          -2.83009804532461   -0.07731304608466    0.17058802024599
O          -2.07538345498722   -1.62353916399427    0.40590679408105
H          -2.32467917280921   -2.13208892494388    1.18052410869934
H          -1.13255301577858   -1.39522104569632    0.51739414512509
O           1.65976878979592   -0.39486484533145   -2.07416970254502
H           1.25116127187879   -1.23031646231464   -2.31108142564409
H           0.93378258023401    0.19293866937942   -1.79749701217074
O           3.10080741168905   -0.27526910250354    0.17319337058252
H           2.63419410928865   -0.97312771693159    0.64683572543674
H           2.79856709631406   -0.34563885975661   -0.76080214860462
H           2.24771273637864    0.91724192374659    0.60929413398866
