    19
        -40.91624656
S          -0.52071650854163    0.15188841760172    0.73935262057731
O           0.61370820888866    0.99821505852444    0.13144451692856
O          -1.54007457761401   -0.03437915352010   -0.26331127464084
O           0.01506375340118   -1.04076985829495    1.31353981813987
O          -1.06014142072385    1.04902847926135    1.87162762745438
H          -1.68373149776823    1.69700793062181    1.45003569855394
O           2.74636436810519   -0.90587108856188    0.91440554503070
H           1.88307788749951   -1.00068586442241    1.34474249667693
H           2.83996698831066    0.02848379953650    0.71490011166574
O          -2.76505271352586    2.23471549029235    0.32123779833331
H          -3.69365696105418    2.15803530048726    0.55428370857096
H          -2.53229272655225    1.44112477796219   -0.19608465051497
O           1.28490767544796   -2.21942620535734   -0.97470169316030
H           0.60365289005728   -2.31134164871902   -0.29881930539467
H           2.07849450441491   -1.94349824708492   -0.47806703263193
O           0.55118123003797   -0.00386311836088   -2.15922167358120
H           0.89995855215149   -0.90059107377481   -1.89912691794519
H          -0.40478284740773   -0.10394646917116   -2.22233113824161
H           0.68407319492162    0.70587346295307   -0.86390624580861
