    19
        -40.92079118
S           0.75800212068425    1.10891513240718    0.63473724575472
O          -0.15617519417149    1.53688457016347   -0.42608827080181
O           0.28731396881203   -0.11429614889933    1.26981409582913
O           2.12864958675277    1.05848546063203    0.19585372519472
O           0.66656391991068    2.21750775936075    1.76059657067336
H           1.09683766718116    2.96925152097385    1.36528609458319
O          -0.02085051745144   -1.86051664116980   -0.72087288220106
H           0.20463721989655   -1.46593916911058    0.14587097836107
H           0.70924294725555   -1.56131167784985   -1.31207790671679
O           1.98949166799804   -0.59389885871652   -1.86265805323126
H           2.08630254461082    0.08792105806187   -1.16303622307396
H           2.87066632565683   -0.93580295750622   -2.02562022844911
O          -2.31504064458364   -0.32601281227754    1.51743900937549
H          -1.34603019204745   -0.17141821797456    1.61801492576469
H          -2.50723122532355   -1.15412616649244    1.96198391637884
O          -1.84351354078548   -0.18230035464022   -0.99427357441005
H          -1.15158509812513   -0.99322414561760   -1.02209540629038
H          -2.26965949994210   -0.25347699857135   -0.07582132911904
H          -1.18762208632713    0.63335864722531   -0.86705270763060
