    19
        -40.91398600
S          -0.70207868301611   -0.67153070688723   -1.34154474446638
O          -0.93132643722919    0.75593244348209   -1.08868275172129
O           0.37080238221264   -0.94253314663246   -2.24606135388403
O          -0.62143372373387   -1.38599746346541   -0.05954144389434
O          -2.03617051978511   -1.21189564644314   -2.01261892499441
H          -1.88484335672905   -1.19985372962464   -2.95376685049515
O          -1.70801883428336    0.40004200774112    1.24120111799584
H          -1.59520223591795    0.84473347570490    0.32662309114388
H          -1.36482960632764   -0.52459315171817    0.92401362893344
O           1.42937309904084    1.47707322304298    0.09583010133339
H           0.67583742503163    1.42869352450856   -0.51435591452863
H           1.88090598061957    0.60823526167456    0.02535340791207
O           2.08544047055270   -1.12164010978325   -0.09986613946068
H           2.17199815868848   -1.22329351395131   -1.05416350282716
H           1.19306870597082   -1.45032714841903    0.08895552700830
O           0.31030064851501    1.29109836685845    2.40220174565599
H          -0.91402991330729    0.80675877484848    1.84107544920760
H           0.81418849131233    0.61979433276086    2.86831204738970
H           0.82601795836695    1.49930319627663    1.55703551971107
