    19
        -40.92079036
S          -1.29643340331404    0.71490889721222    0.11476878214885
O          -0.13897477768188    1.49848773175954    0.55030019766250
O          -1.74963837098439    1.08281323014885   -1.20193954900394
O          -1.05826847009755   -0.71131233395537    0.28888359683843
O          -2.46406846474457    1.06303153108676    1.12496926755368
H          -2.70236740502931    1.95350069243987    0.88668862721145
O           1.19756247091737   -1.20537309652576   -1.04204941037488
H           1.10209932291798   -0.54870728981921   -1.77153226965845
H           0.29142848519869   -1.28644909413839   -0.68111102794488
O           0.34641305554511   -1.36776596925265    2.40476705444267
H           0.42077000797084   -2.32373883404721    2.43179577938283
H          -0.34422100258075   -1.15823927991893    1.73251508222859
O           0.42436372288189    0.72507100721462   -2.66137288418580
H           0.15162387244224    0.63198494845212   -3.57617848224577
H          -0.38580129835525    0.95578461493209   -2.15708605766401
O           1.86609436485892    0.10775490818427    0.96768156234664
H           1.10480037190675    0.82161307306580    0.82311275876098
H           1.46494634226393   -0.48240039559969    1.68931043561609
H           1.76967117584627   -0.47096435123066    0.07647653691910
