    19
        -40.90880552
S           0.91300409858594    0.67776309779006    1.77787368522623
O           0.20183205067253   -0.61679666774487    2.14610970430333
O           2.26689486700553    0.41365956266262    1.41520233159413
O           0.11415404973656    1.42384246500893    0.84826457326651
O           0.92688427984509    1.49260960813744    3.13058920533020
H           1.67714688418464    1.19727932404209    3.64324714145790
O          -0.67293919091686    0.10771787156193   -3.27542669436387
H           0.11414435251836    0.21690767891784   -2.72310598812513
H          -0.36478102286117   -0.07184087650724   -4.16466353578911
O           1.20306276352491   -0.03864587438200   -1.14038291500182
H           2.04151858553245   -0.17919553709735   -0.68955513914476
H           0.76438436288828    0.65126771487634   -0.61690245586900
O          -1.15631531842643   -1.56314267126308   -1.13168159501631
H          -1.39627350366158   -1.08923451695496   -1.94395332085172
H          -0.20953687647311   -1.38276480595289   -1.02943096533686
O          -1.98823441491014   -0.34278024222708    1.02399613309275
H          -1.82279580151606    0.57423826596945    0.76851118375832
H          -1.82192718391692   -0.89025725753776    0.20290710981448
H          -0.79022299151529   -0.58062712937852    1.75840154181200
