    19
        -40.91285623
S           0.69654055390215   -0.77125287777266    1.35997230100466
O           0.19003801088357   -1.46483400099748    0.18056623178224
O           1.57979275274936    0.33376301516116    0.96605094517581
O          -0.30607367382467   -0.38364679473806    2.31227586097904
O           1.62875282539776   -1.83488042145050    2.08091420174003
H           1.75642836694326   -1.50261330195341    2.96497888285578
O           0.12009254144521    1.10329354756261   -2.55281786188904
H          -0.08779555970415    0.86530867434980   -3.45847237998224
H          -0.66667632394744    0.81277843394983   -1.99077043210556
O          -1.69738013839136    0.08698380096438   -1.03661562684374
H          -1.93286780139182    0.69153435134277   -0.30139411918102
H          -1.19420539015977   -0.62878648895522   -0.61279455270048
O          -1.99509395445738    1.41064160372453    1.27512249908809
H          -2.80286023680643    1.36349007669793    1.79012728558958
H          -1.34898385480512    0.83439368034015    1.73058377004631
O           1.80002697501542   -0.32399954163212   -1.36067786724150
H           1.89412455244724    0.13070611483230   -0.39090175209577
H           1.18193557521483   -1.04931301819179   -1.03186244907802
H           1.18420478950112    0.32643316675586   -1.92428491714593
