    19
        -40.91398620
S           0.45425398273686   -1.07829667376805    1.17235696378214
O           1.36908918697007   -0.86374697651226    0.04522692776790
O           0.75339632242649   -0.29360087381397    2.32887652098813
O          -0.93375676471185   -0.97323198420547    0.69943038664572
O           0.61885517605158   -2.60459461049852    1.57964746622928
H           1.23462242890801   -2.62057679439060    2.30725124833264
O           0.90314130161697    1.77067028756620   -0.53472331287956
H           0.26350021526080    1.95145693207403    0.18768326582107
H           1.34045937762473    0.93847881272233   -0.29223356317766
O          -0.95648395825390    1.65445616354642    1.40182962922108
H          -1.24514158280300    0.75346139972685    1.18996528406726
H          -0.40717267148401    1.54275881219163    2.18562678334798
O          -0.36845244441336   -1.29509316748089   -1.67481272369568
H          -0.87573145358034   -1.27431158162028   -0.77104644926110
H           0.55817581450478   -1.22611075848335   -1.24799603469634
O          -0.66173429437714    1.05771314168815   -2.44466765755561
H           0.00594432451759    1.45694829564579   -1.79770669855963
H          -0.53691852829529   -0.32922639282342   -2.11644778380291
H          -1.51604643270353    1.43284595843705   -2.21826023258018
