    19
        -40.91398613
S           0.15924374946221   -1.28503762085878   -1.03213236004673
O          -0.88351994873441   -2.19713312369154   -0.68077701719448
O          -0.31472707105920   -0.01286155821614   -1.58916001445461
O           1.12843276541969   -1.01599887204113    0.03995516786247
O           1.01885729581813   -1.96721577068178   -2.18032134509375
H           0.43640681548027   -2.58047175632136   -2.62025301387665
O          -1.71007726847213    1.01429030717643    0.53046933246942
H          -1.59302935258036    0.25607507171007    1.14301669488467
H          -1.47768168183459    0.67598755716558   -0.34931364852090
O          -0.87853614412886   -1.16169392097161    1.87003104625691
H          -0.00042681321537   -1.18480816396196    1.45953747273872
H          -1.36403379984444   -1.85989670039818    1.41691735801064
O           1.57796411032136    1.29990569742938   -0.66372530190902
H           1.67289503639302    0.35359896653705   -0.25165226284895
H           0.80529540464758    1.04072924907514   -1.28151656238238
O           0.31351468870683    2.48034806753373    1.13142803866517
H           1.12266225323343    1.89880743932597    0.10449423598336
H          -0.57433588805595    2.03677911155561    0.93461420300393
H           0.56109584843205    2.20859598962830    2.01838796645433
