    19
        -40.91472955
S           0.56934059326332    0.60731058737098   -1.84795886556054
O           1.66747530470526   -0.35492812883653   -1.34849076645397
O           0.12535415160880    1.39405438705277   -0.70901434703478
O           0.95872385924443    1.33437596231987   -2.99485303765655
O          -0.57261453070569   -0.36967481664806   -2.23569112980561
H          -0.79014695697132   -0.93691736096623   -1.45275836552968
O          -1.69520080576995    0.70494749218056    1.01850056797207
H          -2.35343665081521    1.39424033232527    1.11841299815625
H          -1.02861922741950    1.04809165963455    0.37162098497343
O          -1.34948230710718   -1.69892417565043   -0.10540533958108
H          -2.11569111503953   -2.22717618470699   -0.33786632474820
H          -1.67294858558059   -0.90768190707478    0.37366288382570
O           0.45146479569425   -0.74960404048790    2.10617261084476
H          -0.32935463415544   -0.18340379011791    2.02548628431515
H           0.29570070937111   -1.49890968279470    1.52351545578034
O           2.28859060743698    0.73657495841283    0.84795928434394
H           1.73688393070773    1.50592943056558    0.66227316050739
H           1.76512467704824    0.17596147365839    1.46667600891144
H           2.04883618449327    0.02573378377518   -0.48224208324188
