    19
        -40.92120580
S          -0.92464167746269   -0.92932809456437    0.43106281735374
O          -2.23365434728057   -1.00226216117659   -0.15735627556242
O           0.13897821722494   -1.38429546328645   -0.46511208165798
O          -0.58741670002844    0.34817864467653    1.03778727095813
O          -0.91073011156328   -1.96182908546289    1.64939213942767
H          -1.50988105637154   -2.65091534128930    1.37824958466456
O           0.36716255281822    2.05736767645601   -0.78716759542438
H          -0.25794546005545    1.73395838395199   -1.47103108579191
H          -0.05483797165647    1.77769543061655    0.04706928277460
O           1.84888254520879    0.00407297679782    1.93438372126861
H           0.89023574852306    0.18422456868415    1.79679596260062
H           1.90321592035007   -0.87138999879578    2.32203427276466
O          -1.52426813432018    0.70363635155428   -2.08169437182190
H          -2.32322974055309    1.01456793959895   -2.51258267686328
H          -1.80761269704207    0.03186204087547   -1.43148786561713
O           2.02911211208568    0.20434553892286   -0.61377985410276
H           1.28845932223888   -0.54136435989919   -0.68035957691415
H           1.44887377719495    1.08554922243719   -0.77853537332757
H           2.21929770057768    0.19592572982667    0.38233169526229
