    19
        -40.92453736
S          -1.10443803183008    0.58528644151253    0.87182144143679
O          -1.45063759200221    0.88136750618743   -0.51372831078898
O          -1.07712589166610   -0.85482439099788    1.10246441967472
O           0.11883645918218    1.23708077721369    1.29033745832509
O          -2.25804691189355    1.17746570141070    1.77366812462593
H          -3.05582143225501    0.76533582636964    1.45499765089719
O           1.66943877127721   -0.84595525837830    1.34762914788850
H           1.21342091734493    0.02041575144756    1.48424541734676
H           0.99932048874811   -1.49427193267957    1.59486924225852
O           0.90850120189027    1.64301847661555   -1.29793497448734
H          -0.05382787468642    1.46953938954127   -1.14418354065947
H           1.19432245605273    2.06946151814736   -0.48165679683819
O           1.66656882590096   -0.75738159629025   -1.17141132800649
H           1.47048469863178    0.26078401295263   -1.31761255318276
H           1.80799509415184   -0.85945703884023   -0.13935433423075
O          -0.69081293490777   -1.63066504105536   -1.34001537140445
H          -0.91125643102509   -1.50879137018590   -0.38148141483496
H          -1.19547994279567   -0.93573385383901   -1.77866585619609
H           0.74855814974646   -1.22267491976420   -1.35398843225604
