    19
        -40.92217205
S          -1.08670978888750   -0.77295096280807   -0.35749387138413
O          -1.69004868658735   -0.90266239026589   -1.65279516440948
O           0.29685114745959   -1.20427857183360   -0.26005112585119
O          -1.26180867414143    0.56045332692419    0.23168518196184
O          -1.88047281051372   -1.75912261021853    0.62032800511750
H          -2.71665862517266   -1.90503992479017    0.18792972709571
O          -0.17316654574447    1.22423676514756   -2.29737176036221
H          -0.74441018489669    1.92221171215440   -1.96811749847720
H          -0.70789783185887    0.41157750071957   -2.25850163523393
O           2.01665314532960    0.77039347019651   -0.83517016354828
H           1.39743505351465    1.10788143455540   -1.51957171083334
H           1.76810031782719   -0.16797458195170   -0.75921663735831
O           0.84844447758501   -0.99397673067866    2.28656161154054
H           0.07652003269632   -1.27783370279045    2.78009693575677
H           0.70091304566664   -1.28702800159253    1.35790385134630
O           0.83038585878895    1.36116236794372    1.28120258446292
H          -0.11833866930470    1.14276152262107    0.87297950654305
H           0.98624444653345    0.54511858120166    1.86400927575459
H           1.45796430160919    1.22507080546437    0.42559287788568
