    19
        -40.92159000
S          -0.99155360926416   -0.42862678164403    1.00630144340275
O          -0.97614035132151   -1.79350535025523    1.45750862468118
O           0.20260335961524    0.31419987398002    1.42998392471874
O          -1.22481301348146   -0.25162160832799   -0.41920296912500
O          -2.22084318670495    0.27850370406333    1.71337202389065
H          -2.26103688755989   -0.12932114708439    2.57308044822354
O           1.10098711764847   -0.73813468335170   -1.63218577888139
H           1.44786366148910   -1.37908259340043   -0.96703076662679
H           0.13731346430937   -0.74139596904335   -1.46784327900797
O           1.51986778818199   -2.11024375276039    0.58546867554800
H           1.99125847877484   -1.60555070026229    1.25240315082020
H           0.60381739066651   -2.18504954324601    0.91735934200929
O          -0.97821304389901    2.19931570551888   -1.30656043164294
H          -1.28303704386032    1.32978735533628   -0.95475679103632
H          -1.21660807111570    2.21911504440032   -2.23557456173046
O           1.31859696731499    1.45156669902736   -0.46686572794414
H           0.92231921408998    1.05545229693596    0.42666833986383
H           1.38252509802124    0.56058015631579   -1.05908053007463
H           0.52509267996544    1.95401129218105   -0.85304513625779
