    19
        -40.92343668
S          -0.98053720021676   -0.52891172474265   -1.26642699221902
O          -1.88749415600896   -0.76266612619702   -0.16293790345159
O          -0.35828490733603    0.78433634692978   -1.20893444091617
O           0.01513236477884   -1.59460714738112   -1.38999411992553
O          -1.82647155733986   -0.55877763098903   -2.59513422148244
H          -2.19160998081053   -1.43809166099245   -2.59116568092841
O           2.11077929409908    1.04378517048874   -0.23034738288966
H           1.88960288433060    1.67133424045052    0.46658693219546
H           1.33428777797028    1.04292508467886   -0.82798632689771
O          -0.30022941537108    1.91457578486009    1.19254124352535
H          -0.43613063696961    1.58662792564398    0.27615288432639
H          -1.05867174367992    2.46361706927749    1.39587642051248
O           1.57844030954029   -1.32882057300499    0.52169114916956
H           1.00375026542946   -1.57595658417734   -0.31615297757941
H           1.97752002692111   -0.41531601182687    0.27146661701400
O          -0.35038040293125   -0.66173871777488    1.95142065933858
H          -0.28553661407786    0.31608119870659    1.96816075043170
H          -1.06217924868388   -0.83745897860196    1.29075552316559
H           0.82801294033930   -1.12093765534858    1.25442787661962
