    19
        -40.91241715
S          -0.55349066865302   -1.36648529272130    0.00748438309531
O           0.23885237054612   -0.95790710406345   -1.15340883601866
O           0.26185885754290   -1.47442176954359    1.20526084902290
O          -1.71515827314981   -0.52256095943998    0.18453277332044
O          -1.09323312267711   -2.81300639974404   -0.32192451250051
H          -0.30921033287054   -3.34401449106834   -0.43375249818661
O           2.59713526416507   -0.19889150505499    0.55486943843469
H           2.92335950335822    0.13488364250743    1.39238699901403
H           1.89100434035303   -0.82602729502618    0.76753442998016
O           0.13275693484137    1.13985976450545    1.62622592764694
H           0.21624469179648    0.16266210179239    1.66496997778963
H          -0.81072545985171    1.31634973234724    1.68267337631806
O           0.71590269894531    1.45851751385750   -0.84377966546398
H           0.74613808604615    0.43253498104398   -1.05334362074043
H           0.68749336211828    1.46949683691657    0.18130088603495
O          -1.76032188464334    1.58189604433697   -1.34172055016373
H          -1.89581032522604    0.78956458990009   -0.75964242444716
H          -0.24297293992591    1.70157139733288   -1.13652959591230
H          -2.02982312271536    1.31597822210677   -2.22313732725663
