    19
        -40.91245776
S          -0.65597766740129    0.35181554587719    0.83583855000487
O           0.03279245324517   -0.95778210226621    0.66177333160680
O           0.27831442416947    1.39547784465801    1.15740851033374
O          -1.45867480184002    0.64014351443995   -0.34912627190078
O          -1.65880831050423    0.15771494326230    2.01403822015626
H          -1.13672811073138   -0.24647644478305    2.73882531039870
O           0.80537786758295    2.20566338636024   -1.29763962848147
H           0.73769241559586    1.98876505265815   -0.34142503501556
H          -0.05840971827158    2.55404786796267   -1.53156300323598
O           0.11609929237200   -1.30722009444827    3.31156133347259
H          -0.13731218797455   -2.20373597185972    3.54407999534741
H           0.39273818859436   -1.32539180092808    2.37856249481963
O           1.31602904286022    0.02774952055026   -2.63873468449471
H           2.17625224938568   -0.27227699009621   -2.33801131089623
H           1.16049671943731    0.91250050530852   -2.19911377773925
O          -0.62269695107977   -1.25623625672228   -1.67379068408004
H           0.17292076957208   -0.81092796579181   -2.18900999080261
H          -0.25010371899079   -1.39643421971778   -0.69858483274061
H          -1.21000194604082   -0.45739632446336   -1.38508855675161
