    19
        -40.91897973
S          -0.55555160160654   -0.70451935609161   -1.36539538589438
O          -1.96475010624167   -0.99298861003882   -1.31936992320369
O          -0.23190196499499    0.70908375355423   -1.25768424289195
O           0.20716802309118   -1.47632520120595   -0.36840588642979
O          -0.01456187837314   -1.17864481882594   -2.77558878564469
H          -0.54663324815417   -1.93508590746262   -3.00809653744840
O          -2.13659065058582    0.87668409725762    0.57872627242927
H          -1.50447984177723    1.23336096153588   -0.07330831176315
H          -2.59946527951764    0.19463359917710    0.06324669523152
O           2.26646452633528    0.44145284347312   -0.43434216848549
H           2.29395182739711   -0.51995250089253   -0.45940450193626
H           1.42154420097155    0.67341291158103   -0.87269224934459
O           1.52034528771097    1.10221407227723    1.97722949858628
H           1.26599039732330    2.02640072853491    1.93594862848121
H           1.94855369398007    0.88742627955400    1.09972655257838
O          -0.41794004625155   -0.50860882770083    1.82635149969950
H          -0.12984710304504   -1.04319080027133    0.96140420517191
H           0.37899221500598    0.14080710961228    2.00878463330576
H          -1.20128843124232    0.07383964596195    1.48287001755585
