    19
        -40.92117390
S          -0.36107436053257   -0.82524064926862    0.51661184038003
O          -0.87081654669692    0.43814234792320    1.29588583152173
O           1.07060848011429   -0.68565642222983    0.44192023927197
O          -0.86703422833430   -1.99417118254158    1.16191091866762
O          -0.97642677170939   -0.69471269684090   -0.86092964637467
H          -0.47524542047512    0.03109788854974   -1.47377692987642
O           2.46516528556109   -0.60332801103950   -1.90800020471198
H           2.08363103185084   -0.82774314641972   -1.04218301063984
H           3.31211292571592   -0.18838766997474   -1.73108917430395
O           1.20662886546318    1.99521221539510    0.13574196323955
H           1.32935733019542    1.06670622722270    0.40088166455102
H           0.53558138887557    2.34467663396436    0.72606876680536
O           0.32271855636785    0.97062918990650   -2.16483236886465
H           1.11097339851004    0.42047668089090   -2.37299339993477
H           0.62507905363007    1.57767936130859   -1.45103271948888
O          -3.03945842408479   -0.77762818149602    2.03315656360767
H          -3.19717044250175   -0.92672790232758    2.96886207794250
H          -1.78133948129105    0.20131276321586    1.60617052751264
H          -2.49329064067117   -1.52233741622741    1.71762707069748
