    19
        -40.92117406
S           0.07274342592402    0.48240967073327   -0.91587618122842
O           1.23820817638381   -0.23654252239378   -0.46895977943340
O          -0.16936091971250    1.60544386913696    0.15338010579030
O           0.13901251933602    1.08839291810185   -2.20710685905715
O          -1.15646012470295   -0.39758408556826   -0.82629769796980
H          -1.14261159663248   -1.04632842067598    0.02969134889880
O           1.25173370535696   -2.91703671118174    0.06666432637635
H           2.00185565324268   -3.09843246462841    0.63685606231556
H           1.38910584078522   -2.02331817978686   -0.29104243019045
O           0.79296685696578   -0.12666167474837    2.19334849017825
H           0.45887822910856    0.75900869686033    2.35115874144469
H           1.17099782746188   -0.10712545407086    1.29655771801966
O          -0.94677685881092   -1.86796370522390    1.16235858881553
H          -0.29253386561592   -2.51138920490448    0.80851224113734
H          -0.42650634525140   -1.29362551612418    1.76989043408799
O          -1.46739235357279    3.07283623789269   -1.54534508716333
H          -0.75602456859027    2.26713028679167   -0.29327685144844
H          -1.11370106045041    3.93237626410833   -1.78766332303648
H          -1.04413452122386    2.41841000566940   -2.13284983755326
