    19
        -40.92079089
S          -1.19437945388178   -0.58673395761578    0.66158767536589
O          -1.14782869711510    0.60529001711816   -0.17369350135358
O          -0.20358413314564   -1.57365636931854    0.22738293548731
O          -1.12645377761457   -0.32118545181775    2.07542554508157
O          -2.60853987269320   -1.23585798883699    0.37262709745966
H          -2.66121893669587   -1.94177774424264    1.00947738544981
O           1.38474488864698    0.44214073876860    2.38308792583803
H           1.44401119014575    0.93466921827731    3.20390013137881
H           0.47043002036806    0.08657465184335    2.34328399223914
O          -0.62703658961245    0.18702606131303   -2.71017365012721
H          -0.63873333895954    1.03318247405974   -3.16209173182234
H          -1.02112186138172    0.33895069414214   -1.81880097968255
O           1.38347828184043    1.43390991094497   -0.05864145562406
H           0.40503700354075    1.42775720780970   -0.07787584672864
H           1.60237473260744    1.15941220165813    0.86291814638857
O           1.41011809946241   -0.65902763521800   -1.41165176211856
H           0.73649399496246   -0.40034883961376   -2.12540103686596
H           1.58536174602850    0.24894883515362   -0.87995796595324
H           0.80684668348027   -1.17927403443314   -0.72140290442292
