    19
        -40.92343658
S          -0.74164814662868   -1.07977775849434    1.06247876338167
O          -1.88595249211657   -0.74510634875584    0.24171031865547
O           0.12175967317528   -2.06998383703839    0.41747725840432
O           0.00661105673928    0.09467004010437    1.48203924982010
O          -1.27973681305448   -1.75460634195273    2.38046703846946
H          -1.74028086805600   -2.51981340432869    2.05027096943904
O          -0.83871518657145    0.37546243548882   -1.87698282916872
H          -0.66167572622295    1.23684779008842   -1.44414302657424
H          -1.40760681838739   -0.10060314082941   -1.22585402786760
O           2.22125206312800    0.79721485910122    0.16947023307980
H           1.59647644639009    0.50503276197144    0.86548960320310
H           1.93382603355570    1.68564985264543   -0.06820455134552
O          -0.31707420847695    2.25344289906577   -0.02891236774314
H          -1.03081696022021    2.83106735104894    0.24490335329751
H          -0.29106149198492    1.52003167994645    0.62469651609236
O           1.25760680105857   -0.90466242584265   -1.45945100366896
H           1.80836459783694   -0.23026186689316   -0.91348137247322
H           0.85137150472177   -1.52944431204472   -0.72647761181603
H           0.39730052511780   -0.36516023328169   -1.79549649318549
