    19
        -40.91628503
S           0.14905491530572    1.26780229185245    0.15347596410493
O           1.36828717555022    0.36214349146090    0.35440985131219
O          -0.55107408515893    0.84164339739013   -1.03858729773265
O          -0.63406044978211    1.32189601855911    1.34483988348504
O           0.75830037605558    2.66807877572351   -0.09114035809959
H           1.01978707881770    2.70187293903337   -1.04615149305870
O          -1.25936670706014   -0.96437048104522    2.59514071997111
H          -2.18364584023644   -0.85381879802114    2.82704225518413
H          -0.97511362174745   -0.10858321984448    2.22014953753266
O           0.91511998814386    2.31818358785929   -2.66446022375553
H           0.42311062776502    2.93520496828604   -3.21145426589557
H           0.28902974976608    1.62491709516003   -2.38162879335165
O          -0.56005861470700   -2.93371041196126    0.92387995867631
H          -0.85396611414516   -2.22970048915044    1.54517484330352
H           0.01771719721195   -3.50767009372579    1.43012793361275
O           0.67108322257545   -1.61963120976677   -0.99882788840785
H          -0.02748197078150   -1.11070910843420   -1.42937566705332
H           1.21691377154725   -0.50812302613832   -0.19488362798258
H           0.21636332090526   -2.20542574730692   -0.33773136186066
