    19
        -40.91346190
S          -1.12748766453798   -1.54663979308836   -0.72823771544012
O          -1.95731671754446   -1.15435406127278    0.48303870929449
O          -1.58721445976287   -0.87930591787115   -1.90605204398964
O           0.27548442561346   -1.41326189842955   -0.44807559474251
O          -1.44138253357331   -3.07873796194719   -0.86487961459914
H          -2.31958594305888   -3.15479952371944   -1.23276516581646
O           0.18986333959011    1.16651854391757   -1.22575208751349
H          -0.43825386449569    1.12905406777401   -1.95337415792886
H           0.43066436761734    0.23608573156259   -1.06668720280813
O           2.46075984990195    1.88348610783152    0.26571090937615
H           2.40962876249092    2.78355392553425    0.59171798485972
H           1.79232674446410    1.79611135020349   -0.42865507485492
O           1.36882195612566   -0.12205844617111    1.79029177737622
H           1.24027821242566   -0.82445073848529    1.13797290333819
H           1.96350800379324    0.52559502920919    1.36656197331930
O          -0.93351784102014    0.95372697223133    1.25812070780954
H          -0.08895064966168    0.59422070722455    1.66657970192496
H          -0.64942421446975    1.32777937884297    0.40199980485155
H          -1.58820178401418   -0.22252347331165    0.89248418549780
