    19
        -40.91112419
S          -0.41408792096423    0.82064501079310    0.78228692080301
O           0.00986323248896    0.18486840356781    2.01360731422734
O           0.75119187467592    1.21261847972005   -0.02133994484038
O          -1.36407608476960    0.02858712620906    0.03361474290402
O          -1.13655499442191    2.17084909257091    1.16340480396298
H          -0.42238701400951    2.75049289929626    1.41210563708879
O           1.58919118938396   -1.78402083921331    1.45650376597560
H           2.31439702984546   -1.75581765858684    2.08418423654529
H           0.93424471069735   -1.09834634421841    1.76046652495740
O           1.78822863202992   -0.84614113874427   -0.88807395930140
H           1.85511648912406   -1.31953634474664    0.02263099248603
H           1.42400803930179    0.11994309913534   -0.61087319259865
O          -1.99293869507664    2.14036910968779   -1.62142410624829
H          -2.38651680157824    2.76294039242156   -1.00774706975563
H          -1.83601035240688    1.33457695240778   -1.11280154040092
O          -0.44224506839920   -1.75457040925913   -1.65985730407015
H          -0.70847090615731   -2.61015889747629   -1.31561613619778
H          -0.93626237008431   -1.07952845342137   -1.13818540396637
H           0.97330900033757   -1.27777048013959   -1.35288625157820
