    19
        -40.92136399
S          -0.11607933517519    1.37155494335804    0.16026163498693
O           0.90707381750488    2.14764694010635    0.81573697971066
O           0.35370750865209    0.78333850609063   -1.10667241486316
O          -0.72875641014178    0.36565234845113    0.99828019481119
O          -1.27032881374681    2.37884972329436   -0.25747153306073
H          -0.82057224814908    3.20908866355751   -0.38658198280495
O           1.49385927509188   -1.33935826600277   -0.40940861960138
H           1.14907237530007   -0.48839850269333   -0.86999555168869
H           1.84254296891276   -0.97013758858337    0.47949993973930
O          -1.82463997952735   -0.62455860425442   -1.79909534411112
H          -1.04723864299279   -0.04153768700864   -1.71036928055271
H          -2.58289038523880   -0.09536582899902   -1.54573030802059
O           1.99486178365074   -0.06616149424846    1.74516247668656
H           1.74808132919788    0.84390838268192    1.46373265383709
H           1.35699814064875   -0.30199420021919    2.42453609748883
O          -0.79111693248203   -2.11390218701498    0.15440022839256
H           0.55194852664658   -1.84671647836822   -0.17778182924885
H          -0.93259122069398   -1.30163687141082    0.69254814884482
H          -1.28393174745312   -1.91027181873904   -0.67105148055401
