    19
        -40.92136402
S           0.19666017530469   -0.03516390073811   -1.37236119737382
O          -0.88988623447509   -0.28957801256206   -2.28541652619318
O           0.03464166592473    1.23993467154684   -0.65177652860544
O           0.46525996080129   -1.11598935539888   -0.45075260096663
O           1.50802215935832    0.15086762220948   -2.24813237447866
H           1.18825024261604    0.49530718798070   -3.07720046361774
O           2.17321883812390    1.14124491331708    0.96700792043266
H           2.88467706919576    0.75018515073167    0.45709552790369
H           1.45976049254488    1.33553280909559    0.33015321543094
O          -2.38872119087581   -1.11623937937288   -0.28214925728475
H          -1.98346772034744   -1.96873792886313   -0.10012088397758
H          -1.99077260929041   -0.81672532997394   -1.13100459969648
O          -1.44577262994808    0.65952407931055    1.28948509442989
H          -1.98522995316474   -0.05062277842126    0.78643146999111
H          -0.91211338052652    1.09659377947261    0.52909233993360
O           0.51903640749160   -0.60169757229842    2.11739615776454
H           1.23244855950665    0.07138105327043    2.05415863986926
H          -0.65215165912032    0.11902222016623    1.81707491552196
H           0.58613979686438   -1.06483923946937    1.25101915090259
