    19
        -40.92071379
S          -0.07439383593053   -0.71230186246476    1.29759928176958
O          -0.04835258488393   -2.15629165904067    1.25430596502587
O           1.15036859393307   -0.08730050927693    0.85389945578054
O          -1.23060602347380   -0.16524718125079    0.56056578120952
O          -0.29879662003854   -0.30566646910380    2.80782915359394
H          -0.79985059225011   -1.03211436878948    3.16746688869866
O          -1.12492828525873    2.48764133305005    0.17610866735450
H          -1.99938959160944    2.81046188998250   -0.04613026516604
H          -1.23406483054804    1.55912402965318    0.46273496468829
O           1.12274236076776   -2.18140801956069   -1.08697772556622
H           1.97579892445409   -1.80274163843805   -0.85495749644681
H           0.68419679983675   -2.37143053576899   -0.22407745266238
O           1.03035370452327    1.62763845574342   -1.13261786336187
H           0.35446765138345    2.24222309269632   -0.77617748788219
H           1.32717284240174    1.12525754613239   -0.33885578270629
O          -0.39587926911504   -0.27750860352578   -1.81120599137639
H          -0.91229035168440   -0.26546153333480   -0.92430265521892
H           0.25319582218649    0.60056762277417   -1.68316727267692
H           0.22025529530634   -1.09544158947129   -1.70204015506303
