    19
        -40.91966068
S          -0.89751443606900   -1.44035733882736   -0.22621472376226
O          -1.19566788938987   -1.15789923646356    1.16929147191970
O          -1.65800682347406   -0.54578437384022   -1.11258162300321
O           0.51305180034441   -1.41401434043418   -0.52392207240754
O          -1.42056934882237   -2.89432594141591   -0.52666914882352
H          -2.34376566877443   -2.84023050089203   -0.29939053635737
O           1.76953028542668    0.77979823619931   -1.53164957361699
H           2.18354588087742    0.76666109648505   -0.63437362383812
H           1.50862214135848   -0.14713263822064   -1.65917396104441
O          -0.44202098040316    1.25055772879226    1.60595056600510
H          -1.04933515977120    1.67514848684396    2.21476945771601
H          -0.74158287423600    0.29837738911591    1.52820206024796
O           2.13834544066797    0.19511181759130    1.01686721632697
H           1.69243163168253   -0.61161423146158    0.71052300325753
H           1.48550950847319    0.66983758949573    1.54401791148354
O          -0.50251949314710    1.62775387172764   -0.94551453709330
H          -0.45999354003635    1.67209073947265    0.06302283755434
H           0.48864534603209    1.37195622532925   -1.27353595559015
H          -1.06870582947422    0.74406542102239   -1.11961877987312
