    19
        -40.91966065
S          -0.99617585527553    1.05423029083773    0.90992155732227
O          -0.75621424334741    1.86807006166677   -0.27182257081794
O          -1.97494640984210   -0.00548112614862    0.62216107487822
O           0.21211079798437    0.52223578692438    1.48958974652899
O          -1.67044768156539    1.98603290623732    1.98471116444974
H          -2.44498173087206    2.30673725872747    1.53300872406230
O           2.36899942071764    0.07903175082138   -0.17161085238303
H           1.97590200269573    0.24759109907089   -1.03564045125394
H           1.80021018907815    0.53623163830300    0.46935315927391
O           1.13755465566658   -1.97569160629788    0.93920169647692
H           0.79793456087188   -1.35290691062834    1.60295730948506
H           1.84667185157518   -1.45118111645846    0.49334180891994
O           0.23563242243414    0.31003765494780   -2.04589831396297
H          -0.12382197845233    0.99080842581663   -1.40562194490197
H          -0.08632508609864    0.56001515583153   -2.91402884804747
O          -0.72010526843129   -1.67075772606917   -0.69750034483687
H          -1.35828379755273   -1.04488610618188   -0.12136693298459
H          -0.31487381807086   -1.02715473367476   -1.36277384005768
H           0.07115997849472   -1.93296271372365   -0.01798213216061
