    19
        -40.92217281
S           0.32318042391005    0.23217565453192   -1.32217487312399
O          -0.49255849680695    0.82837110022273   -2.34080314405380
O           0.63593148729127    1.08083812648713   -0.18593528647540
O          -0.17287689342849   -1.07670389237122   -0.87789782588710
O           1.74386211077001   -0.07533188582997   -1.99043637454105
H           1.56540146093284   -0.12136520632199   -2.92506512291693
O           2.29956493771130   -0.35090718804454    1.23391502658781
H           1.84125443953156    0.33733882725097    0.69894987194447
H           2.88352244225436   -0.81213223999543    0.62870166361837
O          -1.21682102155553    0.91427194943435    1.74604664492336
H          -0.50106681782680    1.37143142491936    1.27014572818113
H          -1.91754240056567    0.82951820205623    1.06242795296271
O          -2.49329600966445    0.51757655509534   -0.56814463263414
H          -2.72131339416705   -0.39587101775662   -0.75668301221082
H          -1.87930334251573    0.78262253480889   -1.27565314760062
O          -0.05666091550967   -1.29148315939918    1.58329437784927
H          -0.60259375768784   -0.40091536077523    1.81165021489454
H          -0.16096917632684   -1.32916489683898    0.53282323369651
H           0.92228492365691   -1.04026950747766    1.67483868478611
