    19
        -40.91289186
S          -1.28503419019332   -1.77517120972810   -0.58635436327923
O          -1.86060081206719   -2.98967777159024   -1.03521315482759
O          -2.20399303120638   -1.07141889644131    0.39648894784433
O           0.05891824806662   -1.79028344729623   -0.08653048258444
O          -1.26570694257662   -0.77416099500194   -1.83971796279472
H          -1.98722018741062   -1.06946346431945   -2.38932124088920
O          -0.13923881212623    1.75958322654791   -1.06313137585061
H          -0.37815847308910    0.99979486194710   -1.60413740972712
H           0.83151505959841    1.71328782948287   -0.93637605932476
O           1.45531112206877   -0.32419768998155    1.58390621146563
H           1.01858337141263   -0.92071448341353    0.93487283714077
H           1.90743040049399   -0.89451989847361    2.20776097357274
O           2.43352675856412    1.45811427864537   -0.27696230590405
H           2.80272955328173    2.21814181201972    0.17588488386386
H           2.22007493825257    0.79839312245757    0.40717668715418
O          -0.98933202514418    0.91311947822563    1.26243000714529
H          -0.74661916113883    1.38404529752070    0.41695303360285
H          -1.72344169333026   -0.21531377315097    0.81054816515532
H          -0.14874414346115    0.58044170253686    1.62172261820988
