    19
        -40.91197351
S           1.03604279777234    1.06113919339894    0.97166264321590
O           0.64917215579964   -0.28225192039208    1.33100570709934
O           2.00869408557895    0.99331777946567   -0.20092925603539
O          -0.00884297312090    1.99221687851014    0.74005389790901
O           1.92801674096208    1.62240097538680    2.13554069063374
H           2.51032010135626    0.92081398055197    2.41926600074955
O          -0.67671722502583   -0.71831668814658   -2.34196665954822
H          -1.24093639161855   -0.16913315134850   -1.73303050013815
H          -0.63081264348045   -0.23517417022080   -3.16803836262701
O          -2.00362245870277   -0.96650961139836    1.44897409983923
H          -1.06555692020000   -0.73017884786630    1.54043207981706
H          -2.03812640841042   -1.91107167414687    1.28691902904108
O          -2.03133543938965    0.77357143688368   -0.65940558726132
H          -1.43144276173986    1.41087189616472   -0.24334642767622
H          -2.30352067438225    0.18343275547404    0.06657943665820
O           1.51825363529388   -1.27328969353589   -1.06831407693556
H           1.17438646049303   -1.58768171873609   -0.22299495067321
H           0.71379252998491   -1.12985257275144   -1.64661009684033
H           1.89223539882780    0.04569514269520   -0.65579765722658
