    19
        -40.92079082
S           0.53017914437420    1.35980711501907    0.27919198183348
O           1.54148447920435    0.30142619997792    0.31644280340531
O           0.56452580919534    2.11325339309848   -0.94759723035056
O          -0.78558782092702    0.84017711360183    0.62509938003346
O           0.90028404135609    2.35476699909828    1.45294069650170
H           1.70497765256162    2.76336214722010    1.14957398434239
O          -1.20439543462200   -1.17307525498896   -1.07161405039225
H          -1.34184276800242   -0.38169828504409   -0.51253416876627
H          -0.72363134963013   -0.82419690223365   -1.85873632668516
O           0.24292503857349    0.22796351572990   -2.77139529296805
H           0.44955820446130    0.95585745112981   -2.14574588162506
H          -0.06325844045901    0.64796767695256   -3.57747535900378
O          -0.80998899084644   -1.03615879955754    2.45719782597096
H          -1.72198819698802   -1.28739531890290    2.61663088856723
H          -0.83619830685483   -0.20371558293049    1.92868086991358
O           0.55888118789541   -1.96275307971166    0.50299230497461
H           1.11464752286510   -1.07142891915378    0.41523244199330
H           0.06980277853200   -1.81881814131767    1.38067933364986
H          -0.19037455068282   -1.80534133798422   -0.23956422139709
