    19
        -40.91440014
S          -1.36615144373469   -0.51522130313028   -0.83898679149815
O          -0.83019505240712   -1.38077384716193    0.20294315897931
O          -1.13253951311552    0.89740172502081   -0.48150091857024
O          -0.96623144120527   -0.83482817783823   -2.17763222551252
O          -2.94156226532557   -0.70822708197878   -0.76785020743646
H          -3.27293832444720   -0.52559455794830   -1.64316461065010
O           1.64603736728173    0.97053685334453    2.01419556757927
H           1.88015593409850    1.83451912805179    2.35903404451447
H           1.76636081584625    1.01703859711498    1.00942992009854
O           1.53502775392739   -1.43830735453553   -1.39329477160637
H           0.73758606120539   -1.31203691700500   -1.93502733551401
H           1.23960796847840   -1.95730228275110   -0.63958447992000
O           1.60091313597215    1.09937781614798   -0.54835551127734
H           1.80893773868954    0.21506045237259   -0.92273384210527
H           0.65322444026150    1.22607291996244   -0.71892486229162
O          -0.78529139856724    0.41420531336269    1.90540315159720
H          -1.01986936776841    0.88015588472778    1.00320338599601
H          -0.79660746765554   -0.52736767450757    1.50119548947860
H           0.24353503854860    0.64529049676959    2.07165081813905
