    19
        -40.91955644
S          -1.41850258460711    0.71972071983870    0.18200547786159
O          -0.27520112595086    1.51847608340376    0.61877393875076
O          -1.28091740920787    0.36982200186794   -1.23341951355532
O          -1.65675640683287   -0.42202776938811    1.02579243614671
O          -2.69581812062188    1.64805924601090    0.27735258427062
H          -2.60086299218599    2.26116338462648   -0.44582630050608
O           1.72150647351312   -1.29596617730543   -0.22046196666729
H           1.66937999794261   -0.90256967107379    0.72460808324990
H           0.79592166933043   -1.79886913649237   -0.35633758733913
O           1.31684429755238   -0.04313719647344    1.94483003608217
H           0.62668327601504    0.56271046292134    1.57026502802292
H           1.94422276687693    0.50568928835978    2.41880939249886
O          -0.59827525956160   -2.18386404309446   -0.53460127605230
H          -0.92029134027674   -1.71573984722332   -1.31684001338594
H          -1.06120019524265   -1.71389378512442    0.20515390489700
O           1.24081560629842    0.80155933618910   -1.52823816613859
H           1.64919012017888   -0.45866773614036   -0.84734930675624
H           0.26404790839527    0.64617568550182   -1.62040630347503
H           1.27921333859988    1.50135915377067   -0.86411045817316
