    19
        -40.92071417
S           1.38630682042373    0.14499754939835   -0.50180536612243
O           1.11679490847066   -0.34733411205114    0.82943313328301
O           1.86175899696529   -0.86514153160918   -1.41893261003475
O           0.20964050958985    0.85760384705548   -1.03792778107405
O           2.52811727262524    1.23127001809554   -0.38775225692566
H           2.95944113943103    1.19867913376332   -1.23692330099131
O          -1.02921751511556    2.41700697117161    0.75937553236574
H          -0.48063681330717    1.98115415365953    0.07724725927257
H          -1.58230260127274    3.05201677432644    0.30199248554536
O          -1.29172489077154   -0.01080300982051    1.82545967382736
H          -1.37931790766178    0.95935210982027    1.71405870940195
H          -0.32322253193950   -0.16678366567880    1.73689839922150
O           0.11126006330366   -2.61954065149764   -0.57465096057516
H           0.42731736584139   -2.75658500757325    0.32328303576582
H           0.82413045754128   -2.10385133356667   -1.02057527588624
O          -1.63199528600735   -0.77254070898438   -0.50494190574200
H          -1.64260330913915   -0.50013851358958    0.55917855937667
H          -0.99046404570025   -0.06361709152608   -0.87868453696644
H          -1.07328263327469   -1.63574491143654   -0.56473281372976
