    19
        -40.92079119
S           0.43772694123103    1.34692748309569   -0.45029917203464
O           1.51247199727950    0.35395472621981   -0.39701107347416
O          -0.84991226087500    0.71208457002359   -0.69500706314555
O           0.45252384358680    2.23844325025097    0.68066400869816
O           0.71702813905980    2.22099545147260   -1.73970341318341
H           1.49016167407120    2.72292352114306   -1.50159147077376
O           0.29128181626095    0.56234158547116    2.71794660285539
H           0.43707651146692    1.22343517807927    2.00695741224157
H          -0.01797972433652    1.05460490177138    3.48078033747324
O          -0.79890468935148   -1.36469891200286   -2.29666947361316
H          -0.86505830719033   -0.47897157376029   -1.86782116562445
H          -1.69666649419985   -1.68754818073480   -2.39712492614500
O          -1.10379182219462   -1.11092329535761    1.23381317689402
H          -1.30283804163538   -0.39961309890796    0.59181858257504
H          -0.62883228129018   -0.64491591680655    1.96140571807233
O           0.67083626662337   -1.97108692082866   -0.29081007624237
H           0.15387586910174   -1.96093034031438   -1.16426406541782
H           1.17080969723805   -1.04334105632349   -0.32339731905328
H          -0.06980915484395   -1.77368138249457    0.45031337989621
