    19
        -40.91907658
S           0.09217256298313    0.51154384703937   -1.58503067155088
O          -1.00788479060102   -0.00235482058657   -2.36697822976893
O          -0.38277281518086    1.33939331860104   -0.45589732738475
O           1.02049750596717   -0.49645337871402   -1.12751847113591
O           0.90456664161727    1.50324957518242   -2.51347455421444
H           0.24835254396023    1.93120011052175   -3.05728056851939
O          -1.24460187178848   -2.00692866023974   -0.69387346895504
H          -1.37118902230286   -1.40876108957694   -1.46427147895961
H          -0.29202778349868   -2.16724371626807   -0.68658507865117
O          -1.52500825249042   -0.23540723944131    1.08420840939971
H          -1.52413208521005   -1.06094327616151    0.45089479890429
H          -1.12882214340524    0.52215122817351    0.46538734884558
O           1.89500898244209    0.83402181884408    0.97661270023011
H           1.28020969632867    1.53165834227635    0.71463472192497
H           1.87289164355753    0.22768108688759    0.20997621308923
O           0.43130043265308   -0.51569181144317    2.65913434641959
H           0.41211011144787   -0.05505959025398    3.49988347251535
H          -0.79064937532261   -0.40199468577586    1.80141509955109
H           1.10997801884727   -0.05006104906584    2.08876273826046
