    19
        -40.91855619
S          -0.75757567990127    0.35972921630508   -0.80944148816943
O          -0.93997815342179   -0.27880291808389    0.47945172552962
O          -0.04309954510064    1.69698610293719   -0.60449823604743
O          -0.10644438791282   -0.44513298852587   -1.78907530075066
O          -2.13796968079713    0.79696312190325   -1.33998968357753
H          -2.63047531813745    1.13784162350209   -0.55022502000114
O          -3.03316397921499    1.22331603647895    1.06144323699734
H          -2.26399110332832    0.64330667367387    1.21530083861336
H          -3.81374037793004    0.73140378762005    1.32823951709013
O           1.55992867473520   -1.09529504839360    1.23261006113469
H           0.60339139351127   -0.95566922337528    1.14376954898021
H           1.80395208425582   -1.67148782367233    0.48149305271885
O           1.73875425840401   -2.34170464408974   -1.16049628701295
H           1.36738197510579   -3.18604677536171   -1.42164572709592
H           1.15255411057049   -1.65860069903067   -1.53073005220910
O           2.19782230483531    1.28748292832281    0.45755312121052
H           2.08569337959619    0.34410180417907    0.78938836310042
H           0.90931390504296    1.57114160776891   -0.21780843522613
H           2.30764614975898    1.84046721769247    1.23466076468441
