    19
        -40.91836420
S           0.44605262456536    0.93367902217635    0.56752341566815
O          -0.94740704505183    0.81924585830327    0.19761994078733
O           0.88715337640281    0.03613389869363    1.58056755866327
O           1.28698470546004    0.80391653622197   -0.71848610351223
O           0.74261088618284    2.38559119337792    0.99156347190725
H           0.31736025326087    2.94365164681463    0.29251178291842
O          -0.61441190049577    3.14074171156114   -1.09192908820935
H          -0.11110400325943    2.91053453538289   -1.87714348884910
H          -1.11116518262433    2.34684681676660   -0.83043461295807
O          -0.31639029975079   -2.35034403334864    2.13209588055491
H           0.25730103257812   -1.57171308558615    2.03009270730399
H          -0.82273631852361   -2.20870598886707    2.93387676772519
O          -1.20524192853647   -1.84722561655080   -0.36781936450284
H          -0.99769953419187   -2.24873476473373    0.49997373217120
H          -1.35913645723369   -0.90726987906246   -0.18054261335519
O           1.08654834338416   -1.56699391529011   -1.52502847864961
H           1.29201892920822   -0.17441644898879   -1.05606814565894
H           0.20468509853818   -1.80980148580566   -1.10351428128844
H           0.96457743008932   -1.63513602113405   -2.47485907066033
