    19
        -40.91317271
S           0.01190456013771    0.52932579282370    1.53315270086347
O           0.25549423649686   -0.86572348327478    1.26384408958844
O           0.91175050997419    1.38003428985088    0.65250534437801
O          -1.33404260383737    0.97882362882044    1.48575661384429
O           0.54472072435171    0.80961998686781    2.99131291965410
H           1.31954478645877    0.27137475748293    3.14406597992701
O          -2.20226249144854   -1.60230545040250    0.28944061968065
H          -2.75719480766590   -1.08356201041906    0.87722406828885
H          -1.31388351902013   -1.57601078367202    0.67581447668302
O           0.82132716998542    0.01751605372118   -2.70458382080844
H          -0.03877593253563    0.15925943466512   -2.24743901056282
H           0.97910023825194    0.80546964397012   -3.22724837845118
O          -1.37866666654743    0.46239060499670   -1.25948488249849
H          -1.78338151765967   -0.38182859110748   -0.97806273380066
H          -1.41934758276670    1.02443888783118   -0.47868551477088
O           2.22699426287674   -0.32941233929873   -0.55079080063142
H           1.77562594281927   -1.06818399995316   -0.11996779359755
H           1.81700655311041   -0.25638805943491   -1.46170045702061
H           1.56408613706586    0.72516162652839    0.11484654925114
