    19
        -40.90459509
S           0.53094164820081    0.91494092062196    0.20399176753119
O          -0.87902647525209    1.05797248098251   -0.04228902162855
O           1.08001751849369   -0.33298346742917   -0.24895781176234
O           1.31518816052392    2.08409451934568   -0.38295547949844
O           0.80655929848939    1.10036116388726    1.72822115318874
H           0.35316431515261    0.36345255623202    2.17712133612535
O          -0.63859165426477   -1.14619922747381    1.71872612576802
H          -1.40464313614497   -0.75627533528063    1.28289606610581
H          -0.03687393067537   -1.40930073807212    1.00764196674911
O          -1.72168804859667   -3.52817074700213    2.90356603921367
H          -1.33075145564435   -2.71721201969660    2.55220810425824
H          -1.34778410527527   -3.65549320825880    3.77665105925810
O          -0.81853551249499    1.11575050889787   -2.75016829561229
H          -1.31439449092500    1.87243884767592   -3.07050149701874
H          -1.00229377071241    1.04827958030420   -1.79618871906043
O           1.84537091187348    1.02563784435185   -2.59906694281958
H           1.99050588608150    0.14174872677942   -2.24059664261815
H           0.91075449115606    1.03600234885762   -2.90660728064781
H           1.66208036990411    1.78495524495127   -1.31369192743126
