    19
        -40.91865335
S           0.07772907320323    0.21574835765827    0.97509300768734
O           0.25581075722503    1.51384545743323    0.40595002132333
O          -1.16724519660538   -0.44942256455860    0.38461893665084
O           1.18706596762839   -0.69855761270168    0.83628550206748
O          -0.23644481410860    0.36889706834440    2.48466082881503
H          -0.08146990461335   -0.51686673662437    2.90300616520672
O           0.60179496640788   -2.02539991211127    3.06501126183154
H           1.34790584530602   -2.08668365047375    3.66694980164247
H           0.96823510848851   -1.89086549772368    2.17234538969577
O          -0.63529993144610    0.24450154714931   -3.05072289692597
H          -0.85177977643699   -0.66758254820969   -3.25088355212845
H           0.26135937787904    0.23500359533811   -2.65001502782382
O           1.68414955023663    0.25936100724236   -1.67353580583176
H           1.71556653539495    1.16950085768318   -1.36394287872420
H           1.65326881798396   -0.27526297049453   -0.86562274998241
O          -2.04468018307093    1.34388513355987   -1.10865694683056
H          -1.64186741723976    1.01413181615907   -1.95283622502120
H          -1.66878675806944    0.24625813392910   -0.21511718351797
H          -1.42531201778679    1.99950851859324   -0.76258763806377
