    19
        -40.91688226
S           1.12934974691149    1.27911093875624    0.30992541123752
O           0.56974636383651    0.38796823159332    1.33400756996397
O           1.12881801607676    0.56875216205766   -0.98433108639473
O           0.49951953351066    2.55816111229365    0.25661221397103
O           2.64823915043209    1.48402828003263    0.68805234539287
H           3.00670796240190    0.62265615215976    0.88992330349147
O          -1.31901929922886   -2.26481123976906   -0.64537291806412
H          -1.88085481200564   -2.40241838214695    0.12007039522198
H          -0.37734630342762   -2.31402413336536   -0.32331023543750
O          -1.27570021419064    0.14257372781726   -1.43322579292995
H          -1.36898733306605   -0.86924308068055   -1.21158773091126
H          -0.24042462450883    0.34615207025523   -1.38249281034238
O           1.13940809088154   -1.91333480627227    0.19148659947015
H           0.93146348993750   -1.16126658604972    0.78785759776929
H           1.51434242080091   -1.49531266315521   -0.59278945508793
O          -1.83116047644950    1.29252392408353    0.75000780977174
H          -1.07512487094243    0.88391538104296    1.22453511775718
H          -1.54178379847933    2.20747425703925    0.62944759872641
H          -1.65719304248602    0.64709463427046   -0.60881594362959
