    19
        -40.92113585
S           0.72161017997307   -0.93996707802621   -0.15238980171581
O           0.20832916747601   -0.08916025351610   -1.20926195687292
O           0.10060093372479   -0.44477201738978    1.18579125175303
O           0.47521010082481   -2.32909349622619   -0.32123948419291
O           2.20684665383166   -0.65550997086850    0.04907162347025
H           2.28802349044802    0.26823087907186    0.48791589910027
O           2.09714808403715    1.62311798034084    1.15043705910520
H           1.48045471749970    1.42885461651483    1.86248768402178
H           1.58253953383991    2.12505286519261    0.47109982895920
O           0.59191337759818    2.50681375289229   -0.83656402974226
H           0.36805045023220    1.57779150987493   -1.05625083223625
H           1.02329398707023    2.87160004547832   -1.61174744779979
O          -2.44882759388687   -0.55479915615546   -1.08426499528324
H          -1.51131730684416   -0.41078256562168   -1.30683554011168
H          -2.86581154493922    0.30934415586179   -1.08167879549980
O          -1.88382268071160   -1.99865874391177    1.09336470644205
H          -1.36275681048098   -2.71049416596973    0.70009076546033
H          -0.73694755024921   -1.01792290768726    1.32097243818136
H          -2.33453719943693   -1.55964545984878    0.33900161695924
