    19
        -40.92008980
S          -0.73098924865560    0.09674954988618    0.33005641131773
O          -0.33878936574401    0.58200290666936   -0.97608929217400
O           0.31469468247820   -0.59813170497876    1.02803522526782
O          -1.24438418553555    1.26610097061404    1.17493181701363
O          -1.96241258830221   -0.80279228294098    0.19072322713235
H          -1.61051335581769   -1.76817821930204    0.12227033616815
O           1.53085548177140    2.42118946147485   -0.31690625679897
H           1.28443961800582    3.25541570159048   -0.72165430107719
H           0.93513289743709    1.74636015163815   -0.69019866389518
O           0.08773427506344   -1.74013086688978   -2.29444834259278
H           0.03707069670286   -0.84190808943211   -1.91993057885461
H          -0.44154380659765   -1.73156471380324   -3.09466543199643
O          -0.68050100429729   -2.95897089612640   -0.04518942861009
H           0.00942482091262   -2.65877685678652    0.56033634849227
H          -0.34178201742070   -2.75980667124653   -0.94643067751091
O           0.97771657111669    1.81817921684060    2.22544168524355
H          -0.44042254196078    1.60162542869628    1.72461244985942
H           1.24031615197531    0.88899647376077    2.24597187093941
H           1.37395290887422    2.18364045034699    1.40313359207045
