    19
        -40.91892674
S           0.71504100455793    1.24220510541841    0.05852348779553
O           0.29905961497961    2.01273113976130   -1.09348154496344
O          -0.41621019551646    0.98817988328096    0.97034101102890
O           1.41083538953645    0.01858120838665   -0.25396987918435
O           1.72185726980256    2.14306542608662    0.88033100007099
H           1.34536213044531    3.01736516511246    0.84199362071741
O          -1.26510037480733    0.36557922026131   -2.35440843831399
H          -1.93603624528193    0.88414078698140   -2.80385465636987
H          -0.60925100395024    1.01358828814076   -1.98980178732823
O          -1.71551622379872   -0.80638130872022   -0.14523009184124
H          -1.26607930337633   -0.03961775524946    0.41757883715145
H          -1.66100421235890   -0.44084293129618   -1.09978227330305
O           1.05689889634788   -1.09460914961917    2.18112744462137
H           1.47799440366794   -0.62671747624288    1.44066100180927
H           0.38727829711139   -0.48537762062074    2.50550375825375
O           0.18295318068878   -2.42452177917441    0.03456574733895
H           0.45653408219048   -2.27549882532651    0.96791001056631
H          -1.00412500241212   -1.59860859858331   -0.08822783894539
H           0.81950827220174   -1.89326076859421   -0.46977939912300
