    19
        -40.91836648
S           1.20810072903037   -0.85850091892299   -1.30113795922413
O           0.73670964720036    0.44439374511477   -1.71059069466454
O           2.13077867990494   -0.81415307682026   -0.18174143400606
O           0.10205575668221   -1.79206187881700   -1.03603206449847
O           1.99793340456281   -1.46657167303440   -2.52378148187930
H           2.38254961403412   -2.25321394200327   -2.14914060483799
O          -0.23579179403110    2.05409466835987    0.04151266596305
H           0.14078544457668    1.45877588180829   -0.66549130347782
H          -0.10877626242624    2.94706029110553   -0.28339565858855
O          -1.09100349424556   -1.26268897374041    1.05047144228776
H          -1.78820778096403   -0.57372391714338    0.79159222356252
H          -0.62679041718355   -1.57871731832469    0.13599672183855
O          -2.55170905036504    0.78088617954585    0.47491033596963
H          -1.78831932053712    1.35286117666475    0.23694063369281
H          -3.00027203497725    1.20049178381656    1.21143985345471
O           0.79883738598269    0.19783165722705    1.80310086499134
H           1.46666263247062   -0.18162914048777    1.17754662077735
H           0.54745138591082    1.05197534819496    1.41419431013181
H          -0.32099453536598   -0.70710987284452    1.51360552835165
