    19
        -40.91792316
S          -0.06522093520311    1.67645207649012    0.20915813865288
O           0.44675112169163    1.73154069110839   -1.14913014536610
O          -1.43606735098336    1.19578615061576    0.25714489463040
O           0.80871301537278    0.93192049182338    1.10346309123783
O          -0.07559621617918    3.16447804144150    0.75089384206786
H          -0.53241334458232    3.63168114954948    0.05840055850559
O          -0.02285342136995   -1.37762003207461    1.86973965453916
H           0.58058219684724   -1.66145927101560    2.55898007609128
H           0.19607414872128   -0.42384018368364    1.68019345858974
O          -1.86429383372846   -0.81545456598035   -1.26611749359275
H          -1.72593278421093    0.02759461534259   -0.74288929599161
H          -2.68349136266760   -1.19341985678179   -0.93798348323978
O           0.21122933031739   -2.04107709955155   -0.56486949015789
H           0.12044833711495   -1.91556062676995    0.45184625754779
H          -0.66248049128445   -1.60962116880447   -0.94798620859841
O           1.97274574670414   -0.32211360226946   -1.03854289133783
H           1.43014432175778    0.47853546442059   -1.28066218419205
H           2.30710461836351   -0.09305590578402   -0.16316276180055
H           0.99455691329961   -1.38476636806838   -0.84847601757420
