    19
        -40.92246916
S           0.25120430387859   -0.48528008526144   -0.91957439802224
O           0.97989808685936   -0.58057377017858    0.41795114386797
O          -0.95699370845932   -1.27420633141010   -0.85408119992304
O           0.06456031857394    0.88311770867541   -1.29704635823700
O           1.24661419586697   -1.15070181446826   -1.89506615380951
H           1.27000790620130   -2.09639850319206   -1.60342668495224
O           0.57270975177508    2.97080935797045    0.31843046766663
H           1.45697244201842    3.29956303555601    0.14814461645682
H           0.36969688776854    2.33783230636564   -0.39645822419636
O          -2.27701424651261    0.60014984750340    0.57148721761807
H          -2.34550786632807    1.32193797797978   -0.05846420145142
H          -2.00462808323703   -0.17860209257269    0.05627959003479
O           0.73942639793075   -3.34657245278475   -0.59775405803182
H          -0.14763107330763   -2.95135956780465   -0.59982628056932
H           1.09693107507326   -3.21005315452722    0.28414320607477
O          -0.07192932390209    1.00854934889939    1.97878712510547
H           0.20390374142759    1.86806924445787    1.58017327024744
H          -1.00895814956618    0.88517426184791    1.68989508643049
H           0.56073733396927    0.09854468300381    1.17640582568225
