    19
        -40.92123229
S          -0.69875826551200   -0.77070874629611    0.61763305404193
O          -1.37083793596892    0.50942795863680    0.71588833267641
O          -0.86230010308734   -1.44881465569708   -0.62681365407465
O           0.77937491868291   -0.55342362593187    0.94125032916686
O          -1.17008649695922   -1.67991932440139    1.77161299130490
H          -1.06037179979764   -1.12063025974790    2.57956561354925
O          -0.64298921999254    0.35641777208935    3.30587669725373
H          -1.01453524190154    0.80480114724951    2.52905837017390
H           0.31307150526119    0.43044900557033    3.23425925418928
O           0.91974663919981   -1.40129720550920   -2.64438467645507
H           0.43505405780290   -1.09234998631147   -3.41281634963190
H           0.24785347661787   -1.61161934901728   -1.96943200576829
O          -0.39521331476846    1.93704850016497   -1.32775892267806
H          -0.56459015864448    2.86918706353821   -1.17758460868144
H          -0.88925349367806    1.44966541687591   -0.64007125876690
O           1.82273633380559    0.48879365195502   -1.03784936758242
H           1.13543152735478    1.16152004405233   -1.24416642693266
H           1.31664796739295   -0.10651861662180    0.10223750122402
H           1.69901962421348   -0.22202878060311   -1.71650484292208
