    19
        -40.92079112
S           0.21600303295157   -1.39040642164653    0.47663114083947
O           1.42087940356215   -0.55838263773842    0.48602612563413
O          -0.36559828735545   -1.53528866720085    1.78614059708506
O          -0.71937059043996   -0.94650766179350   -0.54757627560872
O           0.68501870158090   -2.82793617819037    0.00933508701549
H           1.19564601991445   -3.14379260715013    0.74826585374237
O          -0.77707109478262    0.97682839648052    2.49633254631435
H          -1.43442987082950    0.98148493177328    3.19470461796472
H          -0.57053569199866    0.03299023322948    2.32185969617841
O          -1.14272181173114    1.63410448526969   -0.02980369011532
H          -1.06617766060277    1.61693506533387    0.95315967157393
H          -1.28599505434088    0.69613266977548   -0.26934414562693
O           0.37322339595501   -0.06105454377907   -2.76160005354407
H          -0.04836404516553   -0.57388645489415   -2.03207738827960
H          -0.33027966225172    0.18215987992331   -3.36684556201854
O           1.19088056997213    1.48468212467727   -0.89226276592882
H           1.00877635538545    1.02249827800876   -1.77729795070215
H           0.22094364729082    1.73920460333316   -0.52863609615159
H           1.42917264290438    0.67023451460027   -0.26701140837190
