    19
        -40.92175596
S          -0.16428503604619    0.29968474701402    0.99667472192414
O          -0.72214314959090   -0.99131071277327    0.33360001388669
O           0.65036472082124    0.99152602139370    0.02438717304231
O          -1.22777538189878    1.08008643765706    1.54267241867650
O           0.70502157454794   -0.27480543532913    2.10864900823341
H           1.24585490612181   -1.05307344508808    1.71302480092747
O           2.52486656614061   -0.52943896333318   -1.06931960514896
H           1.82873467802681    0.10026771150213   -0.78557710744246
H           3.35084880372300   -0.04207602646066   -1.05971958251344
O          -1.62476868914219    2.37599258779337   -0.78604739008427
H          -1.68422420829359    2.22462931515885    0.17162676168910
H          -0.68000512995318    2.33507872990957   -0.97251789713314
O           1.87637238032184   -2.16102888979267    0.89478676719712
H           2.24711552026252   -1.67039617997100    0.11831922928904
H           1.12051685726971   -2.65251042410044    0.56048223646974
O          -2.46562797794767   -0.07113524908706   -1.28106551076727
H          -3.34250352728425   -0.13114563537494   -0.89438391764241
H          -2.21962857108417    0.89062353207829   -1.26233504521898
H          -1.41873431599299   -0.72096813118469   -0.35325707538488
