    19
        -40.91893428
S           1.30177674986986    0.05502930676922   -1.14786411265720
O           1.27560011521247    1.38276068959017   -1.70721541341959
O           1.60169148845793    0.06713754377567    0.29217618926490
O           0.13308651240882   -0.75517129845672   -1.42966996639971
O           2.52439961918499   -0.69504009925930   -1.82776087734613
H           3.15768955019824    0.00397856925229   -1.95988343000599
O          -1.21694325717322    1.60779869980843   -0.87045166184233
H          -0.30205195380560    1.72811527381857   -1.19704077757909
H          -1.50807689169958    0.78935274122219   -1.28368120372271
O          -1.40869528881287    1.46057322341146    1.74071396388618
H          -1.42415183023518    1.56201025035926    0.75098576504717
H          -0.94822950585032    2.23053165496963    2.08013017580352
O          -1.11466608881257   -2.26646400443749    0.26467471722714
H          -0.77289393545504   -3.15887618945274    0.18504676881991
H          -0.70832310404207   -1.74494415111935   -0.47504889468115
O          -0.06722926998921   -0.67359996836611    1.94066392228569
H           0.72039094907926   -0.38024511726109    1.27737469138900
H          -0.66944707144981    0.16896075160301    1.96671428108607
H          -0.57392678684247   -1.38190789652317    1.40013587295389
