    19
        -40.92071439
S           0.92039715745152    0.34271591382759   -1.10978156868701
O           1.08438251047197    0.91580346133866    0.20616366407496
O           1.92413711474488   -0.63744579119052   -1.45534373995331
O          -0.44485170219654   -0.19487274955661   -1.27376079073972
O           1.04649652330525    1.51579364924716   -2.16064202422324
H           1.35362494403965    1.08240116697324   -2.95189438777000
O           1.82002258732771   -1.74979632942241    0.91178028543422
H           1.99323117270660   -1.47520472255597   -0.01975825278469
H           2.16876676046577   -1.03409100472065    1.45137429247967
O          -0.90347389237209    0.72074022937654    1.91499681880790
H          -1.62049331206721    1.11564846492709    1.37546348093618
H          -0.08218964514781    1.01239199659605    1.45630456925135
O          -2.36109143163644    1.36091138766800   -0.22214540234174
H          -1.67995126950942    0.88845990532315   -0.74076439866087
H          -3.20880042137759    1.11916009287626   -0.59811672790951
O          -0.70795929589117   -1.50862447850570    0.85643453150778
H          -0.71539192049435   -1.11094567164614   -0.08999907551235
H           0.28342417930694   -1.75635883817207    0.98909001029883
H          -0.87028005906548   -0.60668667257624    1.46059872554500
