    19
        -40.91215942
S           0.14113214939419   -1.65948723679541    0.24344477503188
O           1.18498390899198   -0.93888069861057   -0.43672354830474
O           0.31752791951769   -1.53406296759119    1.75419197847843
O          -1.18973748260803   -1.37753332059419   -0.17138345441232
O           0.41050353373524   -3.18998229594240    0.02972193862033
H           1.34151393640455   -3.33688596000116    0.18360788250097
O          -0.94753235173869    2.28348022410389   -1.38944483872700
H          -0.84458798600840    1.49140112036743   -1.96078305318065
H          -1.82746377886949    2.22704417153229   -1.01295587300850
O          -0.56871562297557   -0.13906454201839   -2.50492639765047
H           0.36285117645174   -0.29817893258710   -2.32217298145790
H          -1.04152832143447   -0.62706461590818   -1.81250692653345
O           0.97086208181299    1.68216596360437    0.36703196324322
H           1.25208355946432    0.83529803960669   -0.01346233959590
H           0.32477901809873    2.05857366914265   -0.27565525912255
O          -0.27657405546514    0.79094666599717    2.40709599276624
H           0.18370408464218    1.26149386673742    1.63228362952992
H           0.01234011946906   -0.58129929309643    2.07989386677706
H           0.19385810112063    1.05203614204913    3.20274265504627
