    19
        -40.92217282
S          -0.81136179461579   -1.09640095457572    0.21426241986922
O          -1.09337670564046   -2.17770207819019   -0.68564521330689
O           0.57845188897895   -0.94961497318997    0.60933639905072
O          -1.36739267671620    0.18712449214855   -0.23275934541670
O          -1.57964233011224   -1.42055024917848    1.57953708337948
H          -2.27660661249196   -2.01907990489968    1.32738231841562
O           0.53027708088940    0.96009749651707    2.39371813258055
H          -0.25563208893450    0.84270004702959    2.93093067881811
H           0.64228393166900    0.12238552826568    1.88806649809660
O           1.95425753559837    0.61180970455777   -1.08136489384294
H           1.88758271579853   -0.09033455440719   -0.41014082424463
H           1.43824466796812    0.24723956104783   -1.83398559909969
O           0.07470713473697   -0.61068568712237   -2.53533957830972
H          -0.67964343667813   -0.06382371657966   -2.76728097022435
H          -0.28475132240940   -1.32702656275968   -1.98263889045540
O           0.25644998732327    2.02643299470090    0.08164967628062
H           1.06387962781987    1.57149824567530   -0.45239793526861
H          -0.52282623841690    1.33902555526199   -0.10590213879131
H           0.44509862522535    1.84690506571346    1.06257216247346
