    19
        -40.91893370
S          -0.54534773594151    0.24376343031737   -0.88650419651879
O           0.46870916094502   -0.28365110211662   -1.76222186390389
O          -1.49777060004618   -0.66968927591300   -0.35296559658347
O           0.18925546644869    0.97524004698753    0.25765882977988
O          -1.29864925363954    1.38786272306669   -1.61229214621538
H          -0.59337694879387    1.93409174289001   -2.03923432554430
O          -0.66755129815258   -2.21370428180436    1.76829858221524
H          -1.23962319057439   -2.07494050868220    1.00093218412400
H           0.23056938044176   -2.25927590394465    1.39263164854076
O           1.58028113757678   -1.66754215852603    0.31655830446864
H           1.27099123307269   -1.34464883468936   -0.54323226847378
H           2.11454051860487   -0.96722094010637    0.69693848976305
O           1.02500456205042    2.25919088907502   -2.40485753790871
H           1.17450068548464    1.29938892926798   -2.43168249759307
H           1.50746351125265    2.59436364293709   -1.64466991344455
O          -0.88370177400822    0.29026681502553    2.41104342213559
H          -0.77239052333960   -0.70684853653168    2.32650694295643
H          -0.23701149966443    0.75066362301771    1.18778313447581
H          -1.82589286171438    0.45268970973976    2.31930880774267
