    19
        -40.91930880
S           0.11072879357973    0.52022560790331    0.70015111453505
O          -0.77136140199331    1.48389779861380    0.08796670832401
O          -0.52364397146740   -0.86721564012575    0.53934086421651
O           1.46073800255427    0.49716598832441    0.24346846189611
O           0.11056327370951    0.76377644006496    2.23162923656726
H          -0.80230171596871    1.06638546390704    2.47326238924424
O           1.85853507358405   -0.82509989511244   -2.14126344916657
H           0.97504956333330   -0.56052841388433   -2.45762464945498
H           2.09988038082175   -0.14011061289847   -1.50246333375776
O          -0.73491288057170    0.02733608085080   -2.22950486406283
H          -0.80262543065214    0.70961617339783   -1.54546135441263
H          -1.34364042583596   -0.66979830503866   -1.97456764147719
O          -2.28689039190817    1.77041266509891    2.24246813692687
H          -2.37021444131462    2.68038910381902    2.53841872708869
H          -2.05393690120174    1.80014322025538    1.29637858673181
O           1.29726487967870   -2.43041494588215   -0.17621232390744
H           0.19457233309750   -1.57989401998120    0.27781324134060
H           1.55005098720805   -1.96204846015612   -1.02871394478460
H           2.03214427334939   -2.28423824914356    0.42491410415097
