    19
        -40.91103812
S          -0.96460980740731    0.12256214972796   -1.18056276215780
O          -2.22590956340208    0.48047464523910   -0.56356477432462
O           0.06440003952326    1.13672455202181   -0.86521126510870
O          -0.51153392559436   -1.20509308140645   -0.85271057422390
O          -1.15575661495764    0.18818259819019   -2.73703228100507
H          -1.44469635895352    1.08102254835463   -2.90147471951833
O          -1.74114676965533    0.29822722297557    1.96304098643559
H          -2.29225966146796    0.94493325486017    2.40987216736232
H          -2.03294852274276    0.29653348692763    1.01015938950302
O           1.41364900400845   -1.57846246900831    0.82218441151150
H           1.21833537429033   -2.34468180959586    1.36524751843693
H           0.72561390535761   -1.55935858709325    0.10435514944875
O           2.58592389187759    0.05676217552786   -1.48624070297955
H           1.73215683426684    0.50283982215344   -1.42236782103154
H           2.56684697151472   -0.66360237638477   -0.85152196285808
O           0.69474510856714    0.76034512473677    1.49019247479327
H           0.51204723880541    1.05373737902694    0.48315003290514
H          -0.26374348188697    0.59830232006387    1.84219088773695
H           1.11888634808360   -0.16944893616165    1.37029386505700
