    19
        -40.92267742
S           0.69396750585015    0.22736238999350   -0.77626741171276
O           1.55928407673804    0.85719572007123    0.20992408914365
O           0.31375279603840   -1.13125114977244   -0.31475121670555
O          -0.48357084903216    1.00964747433806   -1.07616122130791
O           1.49235064676382    0.02853692461924   -2.09471331881243
H           2.28226067391790   -0.47683672831280   -1.79992122021654
O          -2.90454557986354    0.20674600889140   -0.52602658763783
H          -2.06979751271236    0.62657218428539   -0.85014418329748
H          -3.22350507750445   -0.34748380840967   -1.24094936389883
O           3.14420510088677   -1.21104919474294   -0.47697560381696
H           2.93745013721736   -0.42480446802462    0.05312788422766
H           2.50357844291034   -1.87772822653857   -0.20848149612762
O          -0.37103114124114    1.40988680636521    1.89473680171192
H          -0.84140869885430    2.11792988991421    1.44600944845754
H           0.46235338624391    1.28384255055164    1.38126987028124
O          -1.48399287103992   -0.80128068076412    1.32344560508422
H          -0.68522858057935   -1.07655580608085    0.63874285119588
H          -1.10652365881978    0.06545221728389    1.73408571030189
H          -2.21959878700304   -0.48618210354442    0.68304934340138
