    19
        -40.92174074
S           0.78028946746535   -0.37037614949474    0.23830611485099
O           1.28726238493215    0.20063126376486   -0.99162692993431
O           0.19069564612630    0.71834075251689    1.11609551079516
O          -0.16021169941668   -1.43696642696440    0.05731440371734
O           1.97353287600119   -0.89283833173859    1.06729779405465
H           2.70146920048178   -0.23085302190127    0.93910983693069
O          -1.19660719767588    0.34586990687329   -2.05736123004958
H          -0.24112709600718    0.37588529978604   -1.88439098524476
H          -1.43199182481567   -0.58556466109219   -2.06723043173478
O          -2.70867806890578   -1.28208530571921    0.90940630352871
H          -1.81773495589195   -1.50881273507226    0.58162101484165
H          -2.76228351811131   -1.61780670895053    1.80570235034623
O           3.56639032253336    0.93453558876366    0.13900706089833
H           4.34279228979270    0.63774818111185   -0.34249234353016
H           2.82962797083824    0.96089075831247   -0.49915827104835
O          -2.08082449908017    1.22603592616796    0.28722204641912
H          -1.91707830255637    1.09685150747941   -0.67679391281347
H          -2.54963433531468    0.40937669201682    0.57652164670510
H          -0.80588864027790    1.01913745411735    0.80145003143362
