    19
        -40.92174073
S           0.37318461003319   -0.75699154791669    0.30255261700217
O          -0.29840733342310   -0.76442763107116   -1.05842747214629
O           1.61933406017380   -0.02286781795027    0.23923392264569
O          -0.53703261343673   -0.30073416537973    1.31164037285086
O           0.69098285633939   -2.24693781741883    0.55401808555669
H           1.50441368865745   -2.44274399379125    0.02096375629063
O          -2.96480238023247    0.70095360154013    0.72153222847568
H          -2.14482920012750    0.32988844906980    1.09915093480130
H          -3.60432803618848   -0.01296518954853    0.70616933422286
O           2.94034323506976   -2.10085475560365   -0.73405766201284
H           3.74259772248513   -2.30484238790400   -0.24672291297681
H           2.73763429833819   -1.16186182689617   -0.56662423907474
O           0.33346630473628    2.35600718020319    0.35617430341600
H           0.98566843508944    1.63715414471129    0.31670023987551
H          -0.09003908566383    2.27871314635187    1.21520725703204
O          -1.45681344266433    1.39742016601271   -1.35525248671422
H          -0.81363931106984    0.16772847019000   -1.27938695027279
H          -2.20313309616582    1.27278637654872   -0.72442707077173
H          -0.81460071209803    1.97457560891096   -0.87844425823379
