    19
        -40.91893426
S          -1.27116467845690    0.61656206186032   -1.00968523772413
O          -2.50638270609109    0.20093747523415   -0.39517530917247
O          -0.47111811866183    1.53532097492850   -0.22397915202499
O          -0.46698440448254   -0.52766876914687   -1.46552151655667
O          -1.66859554944487    1.40550547881457   -2.32874449818012
H          -2.46170261596233    0.96165909351979   -2.61345143408768
O           2.09782896559078    1.42943297407850    0.09208887000785
H           1.12042155424369    1.58657449685241    0.02636710724038
H           2.50722148452333    2.00280058238925   -0.55845079772680
O          -1.17009860984034   -0.17558432139751    1.84961561658726
H          -1.80749268439272   -0.15344877249566    1.10715803830715
H          -0.78352928949336    0.70523977603839    1.85391786777224
O           0.69076952333734   -2.01037702261675    1.62337744398472
H          -0.01181602555605   -1.33013767960142    1.80626642321032
H           0.22772587556945   -2.83493045392845    1.46268202776972
O           1.72405719556445   -1.01949204123549   -0.46133817070422
H           0.80136312223314   -0.83716053222184   -0.97326264085671
H           2.03749595053197   -0.07763537709258   -0.20561662752949
H           1.41200102080815   -1.47759794399293    0.41375197967708
