    19
        -40.91792399
S           1.43005460382477   -0.00656544062107   -0.90167022354063
O           1.24573739049994    1.43327799031908   -0.95629122677995
O           1.50925654543630   -0.50686267460337    0.46274179559033
O           0.43309857692323   -0.71562958503110   -1.68622963742646
O           2.84000315247605   -0.30562862597657   -1.55810625059827
H           2.80039899747622    0.19793908395939   -2.36517383260546
O          -1.93867111170081    0.19947821279793   -1.39740772940897
H          -1.00147170370498   -0.09997990928921   -1.58691135315583
H          -2.50670195709816   -0.50060329341519   -1.72727818223697
O          -0.51712228916290   -1.84409544289130    1.31210407494204
H           0.30649165436895   -1.45949672116510    0.90323807883309
H          -0.24918165384422   -2.22722699629819    2.14955949810637
O          -1.78889497302418    0.33800808089165    1.10427277792868
H          -1.95200602960560    0.34686703359611    0.06972032217186
H          -1.38061606277318   -0.58951389352410    1.27934287541935
O           0.26304481697256    1.74952474339859    1.38821592441218
H           0.60003578137017    1.82907154315569    0.45364040487374
H          -0.99149019500415    1.01764445328740    1.26705460904260
H           0.89803446657805    1.14379145142734    1.78917809442802
