    19
        -40.92246926
S          -0.21594492473530    0.92954899224780    0.48523085676360
O           0.75096068703542    0.63413501083170    1.51681135996470
O           0.43288757928098    0.71570779592110   -0.87967216021926
O          -1.44664639115545    0.20409451325086    0.57896724995224
O          -0.51746534766261    2.44414841736375    0.48231961442116
H           0.37835079817411    2.86551904614068    0.47735138165497
O           2.06438296167698    2.75367359203317    0.50686521165834
H           1.98789387242661    1.98410043773771    1.09426371042713
H           2.36960483098690    2.42018007034573   -0.34153023385472
O           0.45845656546719   -2.03459836152935    1.23363536296612
H           0.69589589401003   -1.13315158013863    1.51096441468877
H          -0.44470237083369   -2.17218891586009    1.53006981276497
O          -2.27599814780543   -1.59250794299683   -1.24075059416587
H          -2.85954896018245   -1.16443420803058   -1.86938116663678
H          -2.14060912164687   -0.95781761457748   -0.51159334968319
O           0.36797175929041   -1.69348584249084   -1.39071297599030
H           0.44951098392130   -0.34329518267595   -1.17782711726657
H           0.54542602320171   -2.03235000560877   -0.47965828788242
H          -0.60042668145502   -1.82727821195980   -1.52535309955720
