    19
        -40.91898072
S          -0.22336683749375    1.60140942497206   -0.22510923779574
O          -0.27843985688873    2.34411898017318    1.00644240384738
O           1.03977721573238    0.91811245871939   -0.45378560854951
O          -1.34283258220844    0.65291215095011   -0.35918434924984
O          -0.39441381319798    2.63346378722948   -1.41341784018281
H          -0.94235407630883    3.33089732023249   -1.06315465779858
O           0.16148675243899   -0.89153655774278   -2.16981755969237
H          -0.75096517998299   -0.58826517957316   -2.20287643032719
H           0.63393609625813   -0.19213966702711   -1.67229456085919
O           0.28377414423804   -2.69616046806991   -0.28910060404633
H           0.23728069244615   -2.12404956804102   -1.10768418528807
H           1.21573279576298   -2.82030781119171   -0.09781368067675
O           1.02843810526798    0.30338148053816    2.12554899216928
H           0.58909651146446    1.16102401279805    2.25482975093779
H           1.43839927087286    0.41296934878484    1.24715109225366
O          -0.89446815199611   -1.13037878796598    1.30276897961365
H          -0.12354028621402   -0.64597041944074    1.79430253929739
H          -1.22401694855964   -0.40081029876445    0.61271098486972
H          -0.45352384163098   -1.86867021657600    0.71048398146748
