    19
        -40.92174070
S           0.71658959702340    0.30647334029211   -0.44114680226877
O           0.52193995879877    1.51489999256039    0.33194014519951
O           0.88385874208186   -0.88476447891181    0.48411131971946
O          -0.30476553012679    0.05035559869947   -1.41384657016195
O           2.07965060399420    0.39607345715039   -1.16092640004576
H           2.69614518420649    0.83390221310264   -0.51858251619282
O           3.11927925500921    1.82717799483348    0.73920063611824
H           3.43794788493071    2.70279019474322    0.50588563914768
H           2.16424290300824    1.91098989867849    0.91736217652642
O          -1.87976783119072   -2.12994398106075   -1.31656030337827
H          -1.37068238985530   -1.32093412319373   -1.51382455333432
H          -1.46776454555538   -2.83843892096101   -1.81379935566341
O          -2.08011548145567    0.92155815946332    0.78138101125958
H          -2.41214092999444    0.91758252105400   -0.12021587180336
H          -1.19935237528168    1.32907757188085    0.73753261684904
O          -1.36013060343615   -1.59417077013305    1.23568858009442
H          -0.06220413954011   -1.24555491548018    0.88156571410779
H          -1.78602799290775   -0.70596447526794    1.28500018165455
H          -1.69670231971215   -1.99110928743564    0.39923435216406
