    19
        -40.92158994
S          -0.19466216951532   -1.06676653319034    1.00212897205247
O           0.69869371863128   -2.19297175108117    0.99999924140609
O           0.47848214880710    0.18066466301635    1.38744325941772
O          -0.95595056231502   -0.87964220954084   -0.22377042765965
O          -1.28282942630023   -1.34054208493899    2.12124779164990
H          -0.80222807469718   -1.79128500501113    2.80887544248269
O           2.50105001430659   -0.82660687917358   -0.40600976150793
H           1.94593581544528   -1.48079528088086    0.06167153388198
H           2.82328314298552   -0.23310290330770    0.27639006607877
O          -2.37628159688733    1.31626232466992   -0.34539450745108
H          -2.02823245445826    0.40137617435993   -0.22451564144664
H          -2.88772081230750    1.31083679576199   -1.15705117053374
O           0.68847909916590    0.29530729634982   -1.96636786043449
H           1.52590873173931   -0.08884846199284   -1.61353840360850
H           0.00079135546182   -0.30867597961855   -1.62322835809365
O           0.08675297968174    1.99707820666764   -0.25045380130794
H          -0.92730841662327    1.96657913371480   -0.29724517062274
H           0.29688409695099    1.32835766649536    0.53810014240595
H           0.40895238991973    1.41277481769506   -1.08828134673052
