    19
        -40.91833231
S          -1.35554151242362   -0.17668450517797   -1.05449736610033
O          -0.06293472406392   -0.35752452517314   -1.73373340301223
O          -1.96628923382496   -1.43814720790830   -0.71646085185777
O          -1.24277460362151    0.75388315396766    0.05121890367546
O          -2.30125656988693    0.51985936293783   -2.11766271227917
H          -2.54555736907333   -0.19654091401473   -2.69573443110533
O          -0.76271935400078   -1.47675611541787    1.62296099698727
H          -1.13332348303789   -0.63558402101781    1.90514988193750
H          -1.22122880755472   -1.66072632256063    0.77563883555264
O           1.81667342905037   -1.13400216221067    1.33606300462199
H           2.18659033282712   -1.99915701243071    1.15085211710318
H           0.84205110846240   -1.27927522630621    1.49126378811719
O           0.64874864625811    2.50328567645628    0.32733493632211
H           0.69756662835869    2.69622879237923    1.26588917068427
H          -0.17916625389313    1.97522017957989    0.19190049413942
O           1.93021866944933    0.51139804339337   -0.59568404884458
H           1.97669351328342   -0.14102706511846    0.20015449926231
H           1.10085409312511    0.13714160066911   -1.17440800003453
H           1.57139547053329    1.39840826796822   -0.23024580516807
