    19
        -40.91864529
S           0.50613713144435    0.42391380478697    0.97888105798136
O           1.30470616911243    0.36254645628340   -0.22273860300788
O          -0.88857999717802   -0.20865230491705    0.64269611633948
O           1.02964468320095   -0.22416782827280    2.13031253324143
O           0.14203218587336    1.88044469668790    1.26299806026532
H           0.12510448933192    2.36018410711211    0.35450339526966
O           1.49481348762569   -2.28986305111285   -0.62688240441829
H           1.36406214336346   -2.45083094076671   -1.56363537323714
H           1.59025765392361   -1.32469462875571   -0.52045047948284
O           0.17403438270032    2.68102163035283   -1.13137802172997
H           0.87245681405733    2.04099424568073   -1.32449179859704
H          -0.65710709514235    2.27145196712104   -1.45606845598855
O          -2.00139039102168    1.15106719606665   -1.48323382276459
H          -2.87779779999338    1.45973441250215   -1.24476449435748
H          -1.71244103286346    0.55404024930624   -0.77425497920874
O          -0.27811091368325   -2.54234768325610    1.34449220294406
H           0.24964655667891   -2.24133379332616    2.09528929992542
H          -0.80652455917917   -1.19959569801660    0.91722594563023
H           0.36905607172737   -2.70391281744074    0.62149981121015
