    19
        -40.90774470
S          -1.15440377468631    1.50678324129226   -1.38023513429178
O          -1.27501401867459    0.34242418805210   -2.35642922607265
O          -1.66954025888898    2.69906266102579   -1.94526862358011
O          -1.58171226686764    1.10584229237667   -0.07193840401456
O           0.43325502255228    1.69246704773819   -1.25577122887517
H           0.71088358624700    2.13745724588197   -2.05348759641253
O           1.13353966720235   -1.08202544684651    2.39499441706374
H           1.87251042986146   -1.00660435104999    3.00028430356931
H           0.83879609480436   -0.16093432580722    2.20728117071487
O           0.49400802560155    1.39756882773575    1.62803299868955
H          -0.37171978292521    1.34305845674215    1.18730886295004
H           1.10740415298652    1.64059424833720    0.92947557618497
O           1.23251993316020   -2.07946729169871   -0.07271363957229
H           1.38398980059662   -3.02413362003084   -0.01000152953554
H           1.24869583860389   -1.73437108532537    0.85029654014820
O          -1.26363099401134   -1.53333752646931   -0.72548966165990
H          -1.54988298859150   -0.95097860659092   -0.00933975989924
H          -1.27613003135855   -0.53062345606784   -1.77730731092091
H          -0.31356845560964   -1.76278247929494   -0.53969174448183
