    19
        -40.92037961
S           0.89918268193023   -0.40769265586950    0.43203033686408
O           1.13498158941415    0.27918751688988   -0.90122959795361
O           0.19536360743862    0.50333190724578    1.31964094210292
O           0.26286796405184   -1.67444360231348    0.25876074072242
O           2.32311641134664   -0.62137567276503    0.98628640041841
H           2.61739036827323    0.26177096835034    1.32378771502852
O           2.41088708243299    1.76484588230881    2.01817462817117
H           1.45908541041038    1.61110270665071    1.86888531681624
H           2.54495430262579    1.79453100932748    2.96872102295057
O          -2.20588466742859    0.85673471876912    0.17895460461315
H          -1.40387267101936    0.69219585356061    0.71162916526655
H          -2.51276501266230    1.73520660929997    0.41251388345834
O          -1.32776343876075   -2.33950013968153   -1.80818275085541
H          -0.68736106919101   -2.28951280369102   -1.07425130215759
H          -2.16242257237664   -2.60123098744547   -1.41379959108511
O          -1.01017985149120    0.26994040669395   -2.13252971830565
H          -1.17172881487480   -0.69998408941042   -2.23543238592871
H          -1.60654657221625    0.55633617773002   -1.40452775764857
H           0.24069526218833    0.30855618427202   -1.50943167248385
