    19
        -40.91418265
S          -1.17978833496801   -1.12009465333490   -0.76913272119435
O           0.04611224752412   -1.40035718663761    0.09994403549643
O          -2.36041936109233   -1.19867288681994    0.02844115796953
O          -0.95589400915488    0.05877440646241   -1.54510163210522
O          -1.20206425192612   -2.33885887384655   -1.77453064652150
H          -1.67640829831090   -3.05748862433051   -1.36061444229773
O           2.32029316900406    1.60274065500262    0.47541476231012
H           1.61482239006950    1.37303192264224    1.13251257221355
H           3.15181216533158    1.57478125954140    0.95121750398740
O           0.40520203086087    0.69544102596584    2.05711878903585
H          -0.42645498769875    1.11585886031017    1.75774884307287
H           0.32967836375261   -0.22868552678194    1.79669496268376
O          -1.85777955479374    1.39514784385682    0.75190065760637
H          -1.59393429496185    1.53066137765650   -0.16411294549556
H          -2.35543027937091    0.56680786540085    0.74956170606961
O           1.73908950210630   -0.24168247736350   -1.25847809537854
H           0.87936751772470   -0.97770571309828   -0.44870181695121
H           1.05927443489887    0.15502127049579   -1.82194608681613
H           2.06252155100914    0.49527945484008   -0.65793660366381
