    19
        -40.91517849
S           1.83324711970052   -0.05911164177475    0.56101078043111
O           0.80198104867167    0.72048360138617    1.24549866463745
O           2.87596742956220   -0.56522284492350    1.38823072396178
O           1.19724785805253   -1.05018080660856   -0.31771309926484
O           2.53666914402367    0.97024075939955   -0.45512149832592
H           3.45307249427405    0.86376328273786   -0.22047934240533
O          -1.40802774856859   -0.33151427492882    2.13693668175323
H          -2.06207974417839    0.37070693338927    2.10655275864839
H          -0.53205520034375    0.09883051271370    1.98121856617768
O          -2.01585001909595   -0.10852731614000   -1.70669188046521
H          -1.36383000601671    0.61420244962341   -1.50429381572641
H          -1.87038480025281   -0.36108027280712   -2.62017715379395
O          -0.11814374642555    1.58344084317513   -1.05473369348503
H           0.69722674424999    1.58756432714069   -1.56168326659825
H           0.16940235617199    1.36707770093679   -0.14273081359927
O          -1.14182917278105   -1.73312287059012    0.03428915976964
H          -1.35928735699008   -1.28073146268440    0.93042213653127
H          -1.59423383002512   -1.15904994062533   -0.69307099518027
H          -0.09909258003755   -1.52776897952622   -0.10746390306226
