    19
        -40.91317249
S          -0.97740653828158   -0.36962799693582    1.24063906500768
O          -0.97828901921355    0.97263119659865    0.71525653310921
O          -1.13952036752960   -1.36007976638628    0.09926959185045
O           0.09450372362763   -0.73520179851751    2.09668920822464
O          -2.30952440113744   -0.53544981018361    2.06891887393740
H          -3.00854785420407   -0.05569157111467    1.62798071986613
O           1.05519279617777   -0.33968085030200   -2.60095115828575
H           1.43683492548148   -0.38043145212306   -1.69457923724365
H           1.24881426674456   -1.18444409682032   -3.01058261421454
O           1.85629990160144   -0.49840459250953   -0.05943472548055
H           1.39111082239714   -0.97631171832757    0.63509736064797
H           2.00760835226207    0.39313303611111    0.31204579877225
O           1.55819652972648    1.75740399019857    1.41106225828084
H           0.62370814852361    1.71729548002184    1.15778842881593
H           1.61298224674994    1.33228712941467    2.27065415279982
O          -1.38445461516483    0.13370093922667   -1.85243800447935
H          -1.30003162681226   -0.80506281205078   -0.80029801996887
H          -1.29186033454853    0.93858180552938   -1.32448005974419
H          -0.49561694647300   -0.00464712187214   -2.29263819174386
