    19
        -40.92079101
S          -0.08111009928929   -1.38700773449753    0.52697143784253
O           0.47267913380491   -1.28903478250530   -0.82495318183607
O           0.93684900827160   -1.57116161189158    1.52899218662485
O          -0.99626621557111   -0.28728616763412    0.79912496435901
O          -0.98565432251456   -2.68574869807321    0.53282468443044
H          -0.35253142057010   -3.39487215319573    0.47983843995517
O           2.49459120377719    0.52590440157225    1.12849975139679
H           2.00126177430612   -0.31149807761450    1.26702711130203
H           3.01785428607607    0.66180695382522    1.92058927378663
O          -2.44596424499236    0.50242825680979   -1.23891333659754
H          -2.06668107429115    0.08904369966418   -0.42764866351846
H          -3.01983752479488    1.21139005364720   -0.94166592713249
O           0.41184493991906    1.92557240503456    0.32177179338262
H           1.30460142145344    1.61235165987381    0.59926896117084
H          -0.19929693925061    1.28019375618107    0.73144952415732
O          -0.00461194799759    0.88649040703322   -1.90514239058658
H          -1.01722764395625    0.82738236536089   -1.87079558752946
H           0.24918952975748    1.47663262745634   -1.05362535469513
H           0.28031013585783   -0.07258736106488   -1.57361366650589
