    19
        -40.92217274
S           0.92548005738645    0.64695048822562   -0.79385333247204
O          -0.45266097570298    1.13970023392182   -0.67375534341518
O           1.90747379374460    1.61571211990052   -0.39948081700916
O           1.05963900987325   -0.66885862931183   -0.19402961831249
O           1.13238980083877    0.39150320029566   -2.35955256173738
H           1.57462542084186    1.17408624099394   -2.67527331268353
O           0.54466524055028    1.68092615623997    1.92020337969607
H           1.19400000074551    1.71007590784273    1.19543940607954
H          -0.14406455461908    2.30186772518449    1.67136968473139
O          -0.77363571492017   -2.09753661349819   -1.39071056673309
H           0.05560928603866   -1.71734407718302   -1.01971880831276
H          -0.79382765626030   -1.83904362895660   -2.31418415949359
O          -0.25433127960018   -0.85997290137760    2.13517442133711
H           0.44010415122563   -1.12865027253260    1.50785176701049
H          -0.01621294549293    0.07064622773110    2.34250928597822
O          -1.93617837805681   -0.57719096729904    0.31111568089695
H          -1.69692513949818   -1.32114810767596   -0.33620639857487
H          -1.34934690288474   -0.75997339832226    1.18667853638573
H          -1.41680322208289    0.23825030514516   -0.11357725363024
