    19
        -40.92453848
S          -1.05779955908590   -1.05400353253374    0.30410539245636
O           0.23020015559199   -1.58404586159853    0.73800474442616
O          -1.41025819339138    0.13843764105517    1.06619353771807
O          -1.11490969446888   -0.83588072465222   -1.12604836748603
O          -2.14400882265836   -2.15279354245433    0.63240163217098
H          -2.09679124412466   -2.27137095983385    1.57661727488696
O           1.47444359666659    1.49229838620196   -0.56765088112105
H           0.48403020037424    1.78681651896111   -0.73727054491805
H           1.57996112586621    0.58955702658852   -1.08643894777926
O           1.43556635233837   -0.79977639108469   -1.61600599326313
H           1.70571343195511   -1.41677253873361   -0.92550168466125
H           0.45129419785415   -0.89062606724749   -1.63454791337158
O          -1.00295272891824    1.88173914669693   -0.81947417870056
H          -1.29569540577654    1.34842405483377   -1.56759315711357
H          -1.28433443112188    1.35163654269688   -0.03231585491880
O           1.21154970474374    0.58272069984772    1.76697882779370
H           0.95935925961758   -0.33471059425428    1.48948678731128
H           1.48912950150389    1.21459397299205    0.44024716720898
H           0.38550256301343    0.95375622249953    2.09881213936022
