    19
        -40.92071435
S           0.76516772292197   -0.27483762091583   -1.23826085585843
O           0.14934690975535    1.01114876712091   -1.00554220572619
O           2.20633894728024   -0.26577973597431   -1.13524058543720
O           0.16303165313441   -1.30253035641839   -0.36582195323770
O           0.41604586357351   -0.71171593782148   -2.71613089211181
H           1.13646094095163   -1.28576812200469   -2.96040271367681
O          -1.65049898689207    1.21246184551776    0.89890398681706
H          -2.26528371808163    0.50261264299381    0.61776864290009
H          -1.10932238108597    1.38171991529869    0.09351252735621
O          -2.50104107150796   -1.09629716270102   -0.12533009029700
H          -1.56323669878161   -1.26148045721694   -0.34753027299779
H          -2.85870163804433   -1.92741748453503    0.19031887209258
O           2.15924153408470    1.23613903075589    1.00834792166750
H           1.80878897143713    2.05129010150243    0.63729594760963
H           2.37591800423324    0.67267152415585    0.22818550274173
O           0.19402983065483   -0.12949930210577    1.86059547366208
H          -0.66282334341397    0.50651575558380    1.60191752814241
H           0.20720340342996   -0.77055612614247    1.05899494759537
H           1.02933407627186    0.45132272292704    1.69841819875246
