    19
        -40.92079097
S           1.41736070052578   -0.31795172837716    0.31396628824904
O           1.52019721084137   -1.71601387986636    0.64427351131479
O           1.15474943263110   -0.09529721698129   -1.10939176292522
O           0.47813652339581    0.42471390509494    1.14282203815196
O           2.82843672498353    0.33786031951325    0.60277617868711
H           3.43526772282033   -0.23775710004335    0.14790479865358
O          -0.23902832693730    2.77049652140027    0.21348991576435
H           0.17187765961948    1.99815779656950    0.66904983057986
H          -0.84104000076201    3.17113111598334    0.84384713320825
O          -1.93573976531942   -0.35007133431547    0.31702387617313
H          -1.18583932011137   -0.08995976399410    0.88948408340984
H          -1.73270188020183   -1.28376193462660    0.07301118473421
O          -0.79593385331885   -2.66996235922541   -0.19791491861093
H          -0.95379198038841   -3.50079803772095    0.25444650729726
H           0.11032213102826   -2.38923854853854    0.05490793928073
O          -1.00063555301283    1.04941673314926   -1.52135725151954
H          -0.06991230420060    0.55443331832983   -1.50040880247674
H          -1.56188240043758    0.44979697812193   -0.84116011011427
H          -0.79984270147315    1.89480522603601   -0.99677044023922
