    19
        -40.91893424
S           1.13973787901599   -1.07455524312541    0.74857098091942
O           0.86494703733055    0.23479194994669    1.35991061309832
O           0.35825339179650   -2.12720336635740    1.34643655700678
O           1.06749240521588   -0.99947742395035   -0.69742562417505
O           2.65682733173758   -1.39109486806045    1.09224556609865
H           2.60020048255785   -1.80570721251018    1.94780721273511
O          -1.63615100284898   -1.44745461430908   -0.24285034313985
H          -1.10918836182753   -1.49357922081538   -1.04628783375986
H          -1.04253382259492   -1.79645350184216    0.45276393304495
O           0.83322015620910    1.16838147934254   -2.09633468463482
H           0.94702677034811    0.27852727088790   -1.67257536280984
H           1.70964382229541    1.45577760623888   -2.35878068975551
O          -2.47298504050760    1.00124231863622    0.18317786085028
H          -2.24280327714615    0.05481421198226   -0.01988996439376
H          -2.84432696700398    1.00112524974483    1.06760063595143
O          -0.17376697022791    2.04744567603671    0.06140036412743
H          -1.15965176673717    1.73033017661404    0.07991714590483
H           0.32019791337368    1.31926576418407    0.67181074864849
H           0.18385999899707    1.84382375734046   -0.87749709572951
