    19
        -40.92139833
S          -0.83750199746078   -0.46172376706210    0.74414915103084
O          -0.81823763070084   -1.10883267707478   -0.56660007365974
O           0.51253443232808   -0.39450988151261    1.29529187751734
O          -1.46127925810314    0.85744885426881    0.67704354655076
O          -1.71832651809956   -1.31988044524808    1.69656912261004
H          -1.25268488769252   -2.18117961439471    1.70333997277121
O          -0.04599558957902    0.51950125336004   -2.41650275176569
H          -0.31020785898201   -0.18261472312217   -1.75845915479440
H          -0.70903658788090    0.49199775393172   -3.10966515729541
O           1.92581901158292    1.66682169921883    0.59029391427219
H           2.66029242754844    1.29916523719603    0.09371539322731
H           1.44611616400861    0.89473229232699    0.99165700377832
O           0.13476880989418   -3.08725248712278    1.07660342911406
H           0.73640575664769   -2.38160687111521    1.35031196859706
H          -0.09212205091191   -2.87849418573962    0.16111020955450
O          -0.11308808507598    2.38689413190349   -0.71199002973639
H          -0.05874674251917    1.75572857431531   -1.52681105345310
H          -0.78357828259278    1.85642141357881   -0.07895416547604
H           0.78486888760072    2.26738344227482   -0.21110321285720
