    19
        -40.91892641
S          -0.60115341831000   -0.92823126608203   -0.91318443285809
O          -1.97499079547163   -1.09626415392076   -0.49081979962616
O          -0.33411549160398    0.46086623449478   -1.33063166459874
O           0.38195358874701   -1.37811872312687    0.04097393581081
O          -0.40678256741606   -1.80290382900377   -2.21632667845847
H          -1.21618029684644   -1.68624851606993   -2.70517049715313
O           2.43646250821718   -0.01780841354579   -1.06343469792128
H           1.91993862053819    0.55671779893903   -1.63597704678870
H           1.83607020765290   -0.74922095261385   -0.84177801376738
O          -2.08130580750924    0.32319043239426    1.68279553279066
H          -2.09793896673791   -0.31422125380047    0.92360826743778
H          -2.97135347963519    0.67363139288252    1.76075697784379
O           1.86255510738468    0.41536989296429    1.50973029752043
H           2.38395181602975    0.42486578223335    0.67525911180056
H           1.43394623840918   -0.45505482533863    1.49251292438885
O          -0.15013794165947    1.71896435828530    0.79936310200410
H           0.73425780053101    1.27075274423592    1.19208053602604
H          -0.22023152440771    1.30629978294804   -0.16562218255377
H          -0.93494558791366    1.27741351415007    1.28586433807647
