    19
        -40.91990181
S          -1.30013215767968    0.59312289268935    0.49688552842824
O          -0.42942112439809   -0.28779810119911    1.30822168228883
O          -0.57382857240795    1.05001803974044   -0.67772853263886
O          -2.56300568347199   -0.01539521003188    0.19756505503631
O          -1.55671907780456    1.86830101390205    1.38952374593608
H          -0.76046768281213    2.39044104580059    1.31787638557801
O           1.86649785372868    0.19491582020840   -1.04898809949379
H           2.23452315372782    0.50007354565548   -0.19638972393165
H           1.01996303633515    0.69538362763672   -1.11729635168703
O          -1.52854402514203   -1.38110894436902   -1.80050728742369
H          -2.09126326124116   -0.98349976693742   -1.09667763317694
H          -1.33802052834856   -0.65694344479576   -2.40425557359548
O           1.90300979482658    0.93066285850373    1.54876280278543
H           2.38599880823406    0.63161256779107    2.32086798599588
H           1.02506335068500    0.49394205471389    1.58321443272330
O           0.55196579610887   -1.81605335848870   -0.40990854765213
H           1.24250146515063   -1.06398053329133   -0.76466655815101
H           0.15644462009890   -1.34174595124597    0.41854139197994
H          -0.24456575559931   -1.80194815628974   -1.06504072300288
