    19
        -40.91983414
S          -0.83485837528361    0.22010037502564    0.29203764768020
O          -0.06132641004971    1.27331890258055   -0.32901668523195
O          -0.10043497253886   -1.00602825113946    0.45624438621579
O          -1.38268996086212    0.69487703219520    1.63672102649429
O          -2.10159688239735   -0.03507261612311   -0.53233935427610
H          -1.86506217823162   -0.76948405414174   -1.20929743646570
O           2.01268775166795    1.17001937000982    1.40719792532673
H           1.32606792572635    1.38851161499745    0.75355068339619
H           2.70358090862199    0.70910311206241    0.92635267813937
O           0.44466260364122    0.31401560893758   -2.79045263380110
H           0.36495074900711    0.75657343039563   -1.92430252656928
H           0.14571731805654    0.94718200614734   -3.44642425080385
O          -1.06230473211412   -1.76506947815317   -2.04991551620150
H          -0.52919541114694   -2.12525139315657   -1.33038835052247
H          -0.47165631884672   -1.14020926493624   -2.52762316039038
O           0.46813702580561   -0.25456730100975    3.06467703634148
H           1.16869477477487    0.32533806253465    2.69153122027891
H          -0.73528583037292    0.36455333089522    2.36470578950127
H           0.50991199451899   -1.06791049711326    2.54674152089733
