    19
        -40.91908792
S           1.11081393002929    0.21964615382857   -0.32575862774786
O           2.06640518694426    0.35092730750738   -1.38268337955282
O          -0.26206073539781    0.00649993495052   -0.81311122668542
O           1.44565290672913   -0.79551000911401    0.67695746600839
O           1.03511131536046    1.57372564907929    0.49033643289739
H           0.95147863708592    2.24139362144182   -0.22227563067677
O           0.75282790399990    2.59098571641845   -1.91431831924913
H          -0.08050564271558    2.26323377020501   -2.26244704721902
H           1.40130448271231    1.87879842662082   -2.06226649589813
O          -1.19020528109626   -2.44018138278385   -0.45773277380246
H          -0.93111143934827   -1.54212272169834   -0.76995479482272
H          -0.60723465871380   -3.06209511611167   -0.89739451405818
O          -1.49609134411137    0.66299152864871    1.41967958456281
H          -1.20921809875884    0.53400231492490    0.48695789356785
H          -0.93349316262684    1.36298267761114    1.76442886250905
O          -0.52374574706221   -1.63916527330212    1.86613800584868
H          -0.91141230023631   -2.14335862392695    1.06712261119882
H           0.42869162090436   -1.30546340404202    1.44561615448229
H          -1.04720758367412   -0.75729058013752    1.89070579876148
