    19
        -40.92217268
S           0.15107267429872    1.36701489324827    0.12704859484306
O           0.19540425421053    0.38288724080173    1.19426935105612
O           1.34355763769386    2.14382484726729   -0.05521656928270
O          -0.34292398082309    0.76668665552325   -1.11885096873594
O          -0.99877642087460    2.38537462420535    0.57346383556198
H          -0.70041277616240    3.23547267839788    0.26392273435006
O           1.14749460168029   -1.97862899672343    0.35434200075823
H           0.96260308799494   -1.31257223193398    1.04015659556950
H           1.77302592725402   -1.51230262899920   -0.24316848561066
O           2.35064646254335   -0.10910944836143   -1.12751544481638
H           2.00913864013083   -0.01654578255153   -2.02014627354064
H           2.17660225292478    0.74501328221339   -0.69383975076872
O          -2.23347878768628   -0.58155928421277    1.26854606440951
H          -2.84433093521287    0.14376614164146    1.12458975109272
H          -1.35921728575649   -0.16847518168643    1.45551986804944
O          -1.04622130003677   -1.57896425605278   -0.76955785226096
H          -0.13192199719598   -1.91813628778058   -0.32981916101147
H          -1.67029387390455   -1.39690258340625    0.00967862962580
H          -0.78196818107348   -0.59684368160510   -1.05342291932378
