    19
        -40.92048090
S           0.17022189036488    1.53906441213563    0.42090537032175
O          -1.24728910575375    1.44214227661236    0.69477606037631
O           1.00710248490048    0.81845386895935    1.35846243041220
O           0.47030693206012    1.13688838863255   -0.96195642332788
O           0.54750507971443    3.07148917673028    0.53664458396188
H          -0.26674914543279    3.51721310939245    0.32213738036024
O           1.94737493697716   -0.95353408327995   -0.45083132929490
H           1.53581073395800   -0.12889240729680   -0.80790533619533
H           2.24413417319063   -0.68153590581158    0.42657251314610
O          -0.25951870381825   -2.14676507543855   -0.18214116788019
H           0.72118194841623   -1.79668001519336   -0.28744000907257
H          -0.77142568136917   -1.64339917202747   -0.91753345168391
O          -1.25987046495331   -0.56628084007876   -1.89501561435128
H          -1.05294940152656   -0.67553196942145   -2.82559883479509
H          -0.71820103194584    0.19989705870750   -1.57526870468906
O          -0.92867501573960   -0.87018756800128    1.86188575246367
H          -1.45352779204247   -0.12423261004846    1.50156942790761
H          -0.60488716046039   -1.71754686619990    0.72991667354047
H          -0.08054468648667   -0.42056178835954    2.05082067878095
