    19
        -40.91641691
S          -0.83744275810754    0.72221112580568    0.35621070408009
O          -1.26850023996550   -0.65794209156955    0.81306039489794
O           0.60714103351887    0.81392589166542    0.36712642383384
O          -1.43844171114763    1.05496773531063   -0.89931745518655
O          -1.40098254082321    1.64792675520593    1.47880630044073
H          -1.16779857724545    2.56017276757375    1.20633618023781
O           0.54246199032542   -0.67719594751063   -1.91924720800085
H           0.90205748432156   -0.08525840013048   -1.24366112262772
H          -0.33962341942083   -0.33414902423284   -2.09804603102099
O          -0.33639514299150    3.48532143921618   -0.07580399664650
H          -0.81014571067912    3.09399408120176   -0.81951931704972
H           0.53417294337745    3.07449659638215   -0.06392707938378
O           1.02917504382916   -2.98031836572881   -0.57594999091190
H           0.91357462107528   -2.22737122233700   -1.19152857839542
H           0.30632759009408   -3.58657177965643   -0.74689719963815
O           0.83950763743655   -1.64662631520502    1.68483432681359
H           1.02006419211046   -2.26664201977675    0.92849221033628
H           1.35997730144004   -0.85242170457821    1.50917489762228
H          -0.45512975713875   -1.13851952161997    1.28985654060986
