    19
        -40.92079096
S          -0.55026604067701    0.59701982560052   -1.24473792006709
O          -1.41167532143264    0.75548956523103   -0.07113637525347
O           0.18388078374630    1.79595781780737   -1.55692745670318
O           0.27500091916949   -0.59753357714633   -1.13161733959498
O          -1.52224201194508    0.31082209465911   -2.46054642846084
H          -1.96529043628226    1.14358293972254   -2.58993389711080
O           1.48098610514443    2.25922469657635    0.69882123895747
H           0.96206649852139    2.18473376573325   -0.13123006894977
H           2.22086772560349    2.83632985651124    0.50039662831701
O           1.57140646678483   -0.33036157278202    1.18255290594731
H           1.67264262498368    0.65030639921543    1.19930243983901
H           1.36790993852069   -0.52794529917444    0.24590254979560
O          -0.86467417906487   -2.65005796017063    0.03835610180933
H          -0.50124260738965   -1.97019466062246   -0.57678405803279
H          -0.23918402569036   -3.37735061137143    0.04253797532752
O          -0.80796598667782   -0.77375030425779    1.77864753221806
H          -1.17140698594464   -0.06472944274001    1.08775452381185
H          -0.94240661679405   -1.64462512339019    1.27488804584785
H           0.24159313943636   -0.59691838941546    1.71375357230838
