    19
        -40.91327098
S          -0.92272113535329    0.62236045617628    0.05085044468893
O           0.14675925490158    0.94483421867499   -1.02948144122907
O          -0.99775757356817   -0.80607107723514    0.18181366793660
O          -0.66310754244829    1.34517470324342    1.25271800672262
O          -2.21293787894401    1.18384558132976   -0.58930012957362
H          -2.24299951780322    0.84312293363573   -1.51480308694222
O          -0.01233561597884   -0.77888972327289    2.79035190880539
H          -0.49282769066858   -1.33892496139318    2.17043875346533
H          -0.28335786849127    0.12180093468113    2.54911481877754
O          -1.67253158946614    0.48453250652001   -3.05310971594535
H          -0.75339829980252    0.60520319326028   -2.77646782551051
H          -1.86116453146946    1.14639245137064   -3.72348692351300
O           2.40761082280464   -0.55175263370097    1.70001736729968
H           1.58707150731916   -0.72731003107041    2.22071789401889
H           2.65073843441017    0.35631448451126    1.88789913633226
O           1.59120411311060   -1.05875919671522   -0.73693199908927
H           2.04309933158427   -0.91196211917671    0.13892907459372
H           0.84482898529447   -1.64082779305435   -0.54438111345038
H           0.84382679466883    0.16091608226269   -0.97488881744314
