    19
        -40.92453850
S          -0.88483831381552   -0.42562160710177    1.16533835908469
O          -1.10362836231266    0.99944268802421    0.94240995200902
O          -1.30430742205453   -1.20150508694954    0.00388568604893
O           0.47313202136729   -0.72246263017025    1.56994504680852
O          -1.81378219515531   -0.85207767960692    2.36956353117044
H          -2.69923344047861   -0.65115394899631    2.08074646401144
O           1.37182363242644    0.56712677349182   -1.58713393706980
H           1.35535191800536   -0.46046320658953   -1.38638791005011
H           1.59370669631558    1.01763845865503   -0.66898234297187
O           1.06558810275874   -1.82759596750959   -0.86333043770858
H           1.50551478844060   -1.92104825088781   -0.01036398972595
H           0.10795503163235   -1.75476219701600   -0.62363846829755
O           1.60827510627298    1.46708435756305    0.75563826982164
H           1.33634540640330    0.63553024031220    1.21606324179466
H           0.85764718628688    2.05681947383957    0.89447533045038
O          -1.11135296409016    0.98771197311339   -1.64914821711764
H           0.36940564666742    0.80975781776846   -1.75898599401029
H          -1.51851087283895    0.12227771997760   -1.77326697935033
H          -1.20909195587463    1.15330106213309   -0.67682757489124
