    19
        -40.92217168
S          -0.46817385914971    0.54561807929552   -1.18003806095769
O           0.60960862109620   -0.45226365238918   -1.17669971860394
O          -1.60847695181078    0.13992744705255   -1.95032565158097
O          -0.74792372187304    1.01131530648410    0.16653455422426
O           0.15811586716929    1.81970068248338   -1.91691434743162
H          -0.12240653581264    1.73650736459411   -2.82355686251019
O          -1.59570563410074   -2.03269767960425   -0.36360839029019
H          -1.79586388255858   -1.28275668524244   -0.95134915536037
H          -0.94287602560330   -2.55794954292295   -0.83250892614145
O          -0.75854001096620   -0.99223623596375    1.95061305962634
H          -1.01786600837202   -0.10493812292601    1.64519712267122
H          -1.16107800854694   -1.58419109960212    1.27726884610690
O           1.56937275884632   -0.72497527773113    1.08624879001211
H           1.25087254935396   -0.70628593045167    0.07916886861606
H           0.64712679124780   -0.92419616422038    1.58940526447563
O           1.56917147601925    1.83612585480489    1.05223821346816
H           2.02141294175000    2.27957419318500    0.33199105096091
H           0.63248393284133    1.73598455315405    0.76515008932921
H           1.76074571055715    0.25773693004367    1.25118526340348
