    19
        -40.91892668
S           0.48996877166048   -0.05623307432837   -1.34664253854133
O           1.31768719994889   -1.23988823217769   -1.43610489610960
O          -0.91178565754698   -0.40382847958878   -1.04662034849430
O           0.97725491390409    0.95283470205959   -0.43919273661686
O           0.46030067018018    0.59904553376283   -2.78558963099161
H           0.39626427961883   -0.14035679159740   -3.38298659706684
O          -1.37704063522579    2.26238831281618   -0.24244464132483
H          -0.47583522250215    2.03726012306663   -0.52808812068159
H          -1.93436774630971    1.58543808844208   -0.63735262912618
O           1.31881319716150   -2.12889119808053    1.00536564139805
H           1.44969524096575   -1.80378723969719    0.07797015204461
H           1.39217695716182   -3.08512293520991    0.96932161121395
O          -0.22572717074762    1.36864800761629    1.99747684966192
H          -0.83643941724516    1.89186711769068    1.43056668479304
H           0.60306740416335    1.37332041362240    1.49254575570919
O          -0.90531817425615   -0.95550892979293    1.37158192258985
H          -1.03676646909700   -0.76365748315717    0.34540021007561
H          -0.03730300743965   -1.49763034764189    1.38566968353738
H          -0.66464513439542    0.00410240219825    1.76912363792880
