    19
        -40.91286418
S           0.21245710703730    0.34609158659425   -0.42481926425592
O           0.51731217731280   -0.20851104520153   -1.83115883184870
O          -0.06105118100007   -0.74279863101514    0.47973980098658
O           1.24220955629720    1.24664466858567   -0.00898354224440
O          -1.09072884246375    1.13244912929561   -0.66055422674765
H          -1.84193794198547    0.44325304518129   -0.57096731872742
O          -2.71472913761105   -0.68488316534476    0.01006811234002
H          -3.06960895156988   -0.17435208552702    0.75860939082297
H          -1.93144276007256   -1.14912003345736    0.34696881694351
O           2.63462403836123   -0.81268399218693    1.05970542254869
H           2.42848842146507    0.12549424899090    0.92608551481881
H           1.77761740626938   -1.21337460885360    1.25295190046112
O          -2.93556040702671    1.51435546701208    1.63822740437109
H          -2.18309451028907    1.85499100895397    1.14303293933865
H          -3.60813956348860    2.19861607788199    1.63549152612238
O           2.82449047257793   -1.27065086251677   -1.53270720940651
H           2.88511212237617   -1.23747211185011   -0.54325278275483
H           1.40910828031916   -0.68705701242660   -1.81199891203967
H           3.50487372348553   -0.68099171412265   -1.86643873072052
