    19
        -40.91880962
S           0.85907696299116   -0.59594221479644   -0.55472466534587
O          -0.03547968290644   -1.08199189325495    0.47636937174046
O           1.79345737828424    0.39296377137786   -0.13211779446100
O           1.60677042326651   -1.79627863690968   -1.16551664839597
O           0.02367220377696   -0.08828897080555   -1.73741704857647
H          -0.45911837234440    0.78884551389122   -1.48834104894375
O          -1.03602465871517    2.08962552261126   -1.04322996194889
H          -0.48028591560193    2.35878107731290   -0.24304662544996
H          -0.87853694492592    2.75639169363158   -1.71560757521288
O          -0.80500956038686    0.68660813942684    2.40268369766664
H          -0.49431830867089   -0.02093462519164    1.81104930310144
H          -1.75735755715687    0.72774663736079    2.29553268255702
O           0.52254516875757    2.54610994123221    0.95966605101227
H           0.08172313279012    2.05603770145343    1.68277931917433
H           1.23911543163851    1.95995874375983    0.66848586854268
O          -0.36973186389805   -3.41580723881703   -0.72164682623051
H           0.94654161795170   -2.53629844417007   -1.20278799747324
H          -0.17843867855536   -4.16575042817259   -0.15269760771074
H          -0.57860077629011   -2.66177628994019   -0.13943249405862
