    19
        -40.91440015
S          -0.58569474590791   -1.35714091974876    0.80574836771932
O          -0.72433509446568   -1.17207634956450   -0.65147964491141
O           0.53630265098563   -2.17077245136801    1.17052074396403
O          -0.67193555526119   -0.06586380076263    1.47516287201814
O          -1.89209803773492   -2.14337836414772    1.25263548525979
H          -1.67472891058466   -3.07064407905621    1.20599886906074
O           2.17470372816780   -0.04025619838728    1.28018580519331
H           1.82596181832054   -0.94612986258047    1.33589771243861
H           1.54558765206500    0.49516415523800    1.77237926023307
O           0.09954824995576    2.39352866178903   -1.40440939958292
H           0.77038681968556    1.63483802839759   -1.38120276567374
H           0.01616708308555    2.65835501327471   -2.32263353784717
O           1.52232113340286    0.26064301305844   -1.29684213418286
H           1.98322600809500    0.21913523597526   -0.43002059231509
H           0.83761520769433   -0.42646451841908   -1.24886984892105
O          -1.76901468004285    1.04610934183093   -0.44252130536787
H          -1.48489636246532    0.10442004270295   -0.78413149455053
H          -1.46236357325249    0.86541334730898    0.51915675072305
H          -1.04675339177580    1.71511971448005   -0.85557515328047
