    19
        -40.92217215
S          -1.19538468152244    0.29383070505216   -0.62728624498880
O          -0.75575439696741    1.03666701528118    0.56099841237304
O          -1.41060826457175    1.13456873534159   -1.76976904015616
O          -0.35840893470635   -0.87193951080491   -0.84878527725625
O          -2.61987824992272   -0.31264562075709   -0.22514810161238
H          -3.25324104912830    0.30704658257035   -0.57502864395618
O           1.12988340617339    1.91885459173242   -1.36064979832306
H           0.24796965481405    1.68158186660165   -1.69817616621726
H           0.97561857313622    2.59019284980797   -0.69169093371653
O           2.24250578876675   -0.33999301976063   -0.46683336740765
H           1.51191538543749   -0.85206881243052   -0.85650225085630
H           2.11200230327539    0.55612931232902   -0.84853079404143
O          -0.46234616563547   -2.17290799977093    1.41671243998912
H          -0.50127202528665   -1.87628481566678    0.47846110507196
H          -1.35977577485381   -2.11624442999627    1.75047925082135
O           1.07334765483080   -0.14737209908187    1.73145881653933
H           0.30501063330045    0.45665190650795    1.33063219637729
H           0.59883760187398   -1.04038209912021    1.81483121855523
H           1.71957853056667   -0.24568516780147    0.88482717864978
