    19
        -40.91966072
S           0.02435299778533   -1.27016675192078    1.14807753882586
O          -0.03748953993086   -0.12316496354482    2.06714877173154
O          -1.26955026506034   -1.50059935545826    0.52439492129972
O           1.09900849285956   -1.13439475533296    0.19640803367851
O           0.33695233620265   -2.52626984647950    2.04384761487271
H          -0.41152159834209   -2.56143038625411    2.63151035345945
O           0.50195812694326   -0.16899048286405   -2.31590236651702
H           0.68287254944176   -0.81669934158758   -1.61498723440094
H          -0.42075428957124    0.08661139380727   -2.20265501829905
O          -1.80973704133065    0.59915616655644   -0.83893298968939
H          -1.66729441190212   -0.26469893410915   -0.35319142091874
H          -2.75107351896614    0.77847983291683   -0.79969020188723
O           1.99397931175925    1.27902998684102   -0.68891602305689
H           1.58735757712207    0.94957817641903   -1.52745536203633
H           2.19190618165458    0.45685539173951   -0.21110083679312
O          -0.06805765248573    1.85444032299614    0.59195301379061
H          -0.03614300886122    1.08776527955044    1.32860417997571
H           0.85309559070959    1.73532886751764    0.05014401826535
H          -0.79986185803486    1.53916939920924   -0.02925699229636
