    19
        -40.91893432
S          -1.26977748435846    0.71243996841985    0.94646712926103
O          -0.87922523353906    1.33427337280811   -0.32807009532486
O          -2.40530147446222   -0.16217209547869    0.79775729901817
O          -0.12357495877481    0.12520889384590    1.61200695506514
O          -1.74383992701149    1.91065156321373    1.87333395321281
H          -2.66062580253824    2.01386674555397    1.63682223875449
O           0.51144934034088   -1.44149919362156   -2.19142155333360
H           0.05374018033040   -1.77253124187880   -1.37224563980911
H          -0.16346666651950   -1.39004298236257   -2.87106860954890
O           2.35053823583867    0.37317081785406    0.88484649845136
H           1.44900513543514    0.22655217604880    1.27223111173993
H           2.74025354644423    1.09882728189761    1.37586997551985
O          -0.74994467450308   -2.06467318670623    0.02119088215512
H          -1.50694972538226   -1.47889308538803    0.22617148029610
H          -0.17077540292076   -1.97586092250101    0.78408429065059
O           1.28709740872406    0.82267415558243   -1.37580421095358
H           0.35015280361682    1.12455333602904   -0.95513189933820
H           1.86610737898373    0.64506951634237   -0.54888997440473
H           1.06513734025101   -0.10161512947243   -1.78814981146533
