    19
        -40.92008977
S           0.00325293058819    0.46031933898392    0.66777522669885
O           1.14582429604311    0.23263069789225   -0.19146972089472
O          -1.18932353500793   -0.21475100641015    0.23691660584953
O           0.35432955182840    0.05107945486495    2.10086631992300
O          -0.25375790765981    1.96513932535567    0.78521776277427
H          -0.95578845774312    2.19639837270112    0.06762100456683
O           1.55962304407895   -2.41509266912143    0.16417736149901
H           1.47720107468460   -1.48158304482045   -0.10319279753804
H           2.47259116223266   -2.54262865144463    0.43005258305294
O           0.33510631318404    1.42575383138355   -2.47808665952464
H           0.71559301758482    0.90636525919509   -1.74651872261830
H           1.00672485527814    2.05869734896546   -2.74041485933640
O          -1.87483384078534    2.09924505995910   -1.13828150925285
H          -1.19633564885138    1.95449087990514   -1.83499307525037
H          -2.23442856965877    1.22391778460542   -0.94510112286037
O          -0.46933218672834   -2.32123945239151    1.89842400342362
H           0.03561586559981   -0.92211637627743    2.21063986336720
H          -1.18975563237826   -2.06036539628635    1.31043859766282
H           0.25769366771048   -2.61626075706395    1.30592914846578
