    19
        -40.91617177
S          -0.91248044422733    1.11593007371704   -0.65573635935289
O          -0.89572230316963    0.42294638324119    0.74052509454483
O           0.19009913357943    0.58260534648679   -1.41898254016489
O          -2.20721521279982    1.00268015355777   -1.21875071324907
O          -0.62076806254017    2.59652260757078   -0.31010817329344
H           0.24878191483472    2.62801377440497    0.16076198509399
O          -1.32612209012189   -1.67905271084976   -1.52612738848073
H          -0.66878852762708   -1.05951073819216   -1.86977429299053
H          -2.12877861464689   -1.15538790550237   -1.43593008507313
O           1.55651347951810    2.26334928005391    1.14269816949776
H           1.38064260849176    2.44314912910245    2.06937343796588
H           1.82415962118494    1.33431328103269    1.08110236772297
O           0.17047332987233   -2.77500686365838    0.47211847192637
H          -0.39188511668358   -2.52051777927650   -0.28723361818040
H          -0.42910622363241   -3.03198181938799    1.17436130939358
O           1.49774756570246   -0.49769456043816    0.64055195439575
H           0.02583311285039    0.03723927216161    0.87085674708756
H           1.23003235214647   -1.44781371688634    0.67201436850761
H           1.45658346741194   -0.25978318721382   -0.30172075523379
