    19
        -40.91898908
S          -0.55544368062178   -0.41690497496203    0.85334904269264
O          -0.40311171064861    1.01646852959532    0.99192170045015
O          -1.00027787926869   -0.76984536041212   -0.50233683920880
O           0.67858277508701   -1.12846635266300    1.19470689692896
O          -1.63647700636005   -0.92479035088120    1.84784859822146
H          -2.48278627416443   -0.63061916922384    1.44940625764415
O           1.86878153645441    2.16675747071807    0.57489198718704
H           0.97550296672902    1.83059030798141    0.85774044798621
H           1.70269619190215    2.78674718222771   -0.13888810565882
O           1.00403235967657   -0.38196781412115   -2.10253761222586
H           1.05922530603035   -1.16237135403611   -2.65817753081226
H           0.17830762142467   -0.49164389861244   -1.55816246090703
O          -3.51496372074330   -0.28304271503079    0.11560989511400
H          -2.68280491034728   -0.36715237918434   -0.38989133817503
H          -4.08565471798531   -1.00002932918858   -0.17095666873265
O           2.54319772015772   -0.16722103208644   -0.09265995341878
H           2.43837373797181    0.83020536530833    0.18038551386302
H           1.83631441597453   -0.65527084551019    0.54927566429075
H           2.07650526877217   -0.25144328993401   -1.00152551522208
