    19
        -40.91880962
S          -0.13138915867813   -1.11833336471438   -0.36454834874809
O          -0.80578505089409    0.06307573220676   -0.86362076825037
O          -0.46933474014823   -1.49409534117326    0.96748941108593
O          -0.41046092562374   -2.28916485907857   -1.32591311109070
O           1.38364812951750   -0.92332949374129   -0.50954605593639
H           1.72391489599065   -0.22163886578948    0.16602591399753
O           2.10941990231687    0.74105519253540    1.23719757827025
H           1.33099392423052    0.73551476778483    1.88193891278215
H           2.86211870548235    0.39555424740755    1.72251633317118
O          -1.37380926867204    2.03352299483823    0.93263900877634
H          -1.29474916608779    1.33435711708255    0.26026367840285
H          -0.88046486918134    2.78522582654086    0.59834331265093
O           0.00647860557883    0.54478188321764    2.71634142659425
H          -0.60186188240550    1.18831543984501    2.30022643936285
H          -0.27952866639784   -0.31763417074560    2.37525866926228
O          -0.60945822423312   -0.72052843987994   -3.38171417428585
H          -0.70370399789834   -0.10222869883491   -2.63340642525481
H          -0.40325096527994   -1.89830440674616   -2.23811207786413
H          -1.45277727763459   -0.73614555072200   -3.84137969292957
