    19
        -40.91624657
S          -0.15852407214556    0.05350418195005    0.90406805848364
O           1.13252377563235    0.30819909671366    0.10334991933550
O          -1.18785500479567    0.93022997383816    0.40285936525726
O          -0.46890426447008   -1.34031096902522    0.89815664495272
O           0.22925630129777    0.46945909279888    2.33743888551851
H           0.14113636773742    1.45761308957698    2.38157040959957
O           1.54035913961383   -2.55094343173909   -0.55881458492682
H           0.91880040662470   -2.34219787466578    0.15515144553117
H           2.19966584478952   -1.85324039151138   -0.54619628124953
O          -0.69792545654926   -1.82239323523304   -1.92971332367456
H           0.14386526155277   -2.28271556704259   -1.74900434995858
H          -1.15747776762761   -1.82818799817762   -1.08250686332052
O          -0.46827203366083    2.93794353891588    1.96600963742044
H          -1.15622622343589    3.28950147936016    2.53665399149744
H          -0.91310243628966    2.48340332701154    1.22636145885202
O           0.04927718165177    0.67906239500369   -2.12015284681149
H          -0.25024749835533   -0.26157451178251   -2.25686651590414
H          -0.72431856923139    1.15533069361080   -1.79976166229578
H           0.82796904766684    0.51731710041964   -0.86860336829210
