    19
        -40.92174041
S          -0.08176817135897    0.06797266349426   -0.88883751778500
O           0.27266797241544    1.36456161877369   -0.39064190165139
O           0.84292709186455   -0.99330787008702   -0.32116510530063
O          -1.46321808345324   -0.30463577028199   -0.66889851096307
O           0.20599950076748    0.02034791368031   -2.40507088819470
H          -0.29485543506144   -0.76309021831526   -2.75112961108993
O          -1.36618570655241    0.50682255100989    1.91201487129162
H          -1.62472303346411    0.17208128764115    1.03756103985580
H          -1.17616264619130    1.44066549842542    1.78960527749582
O           2.11455383775657    1.72380053541560    1.53912247426592
H           2.97680139041909    1.83394019801021    1.13495540466888
H           1.46198484201858    1.76600365362318    0.81460287834540
O          -1.51187399710602   -1.88718888800483   -2.79077634700176
H          -1.76909414562158   -1.55349485905436   -1.91133048748674
H          -2.24502631422869   -1.70518548824770   -3.38413753955316
O           1.02495266454042   -0.63238306221277    2.11665924342822
H           1.57086839134188    0.18769097826114    2.12292310532747
H           0.10361767657257   -0.32514694085449    2.28768492183917
H           0.95853413532583   -0.91945379127518    0.75685869249885
