    19
        -40.91966070
S           1.25843297601884    0.92451729862750   -0.70232754137275
O           1.13391703243358    1.63228287835385    0.58126677849746
O           1.93411186516031   -0.35127413439854   -0.52343222456538
O          -0.01290398823495    0.80654152716172   -1.37241979979701
O           2.18967045605017    1.81976588175585   -1.60198941244734
H           3.00454538238326    1.84328501013177   -1.10985088110048
O           0.45672654767215   -1.75030634135978    1.03167145056543
H           1.07990203143902   -1.28256925074601    0.40275706828318
H           1.00658425291377   -2.28019655332597    1.61191489420229
O          -2.37763740988045    0.65290435566654   -0.03676902316400
H          -2.35163370713440   -0.26505906407323   -0.40183247913300
H          -1.81481037808747    1.14461548450097   -0.65744235094139
O          -1.41073781741566   -1.55698968586102   -1.11146891050823
H          -0.87755954121950   -2.01633812561250   -0.45252885215043
H          -0.82342199342378   -0.89277258725067   -1.50799343586047
O          -0.67283728051347    0.44731000189887    1.77285400140563
H          -1.49520495071711    0.56431732817315    1.09002832285056
H          -0.32443826424812   -0.49072839698713    1.63200424347392
H           0.09729478678341    1.05069439333502    1.35555814176345
