    19
        -40.92217217
S           0.70277498346967   -1.11831663976067    0.39929565058504
O           0.26485324013010   -2.18090443143856    1.25818153782297
O          -0.04784189386820   -0.95281262672981   -0.83305437200965
O           0.85371064279783    0.16483286813205    1.09708494313606
O           2.18063691069217   -1.49627618205873   -0.08349514689369
H           2.49455567649296   -2.11852335943556    0.56591197878511
O          -1.79179535961944   -0.53690999003026    1.81799775511324
H          -1.17907960791152   -1.27657860797640    1.65931378315561
H          -1.37405835357786   -0.00009203729615    2.49568866162700
O           1.26546199506864    0.90250528866328   -2.12396125532849
H           2.20235761468949    0.75212147638311   -1.98367866674336
H           0.81008415501125    0.08271477115772   -1.82307646464673
O          -2.14740365041453    0.68679863592046   -0.53148011104820
H          -1.66920607815229   -0.03538568245268   -0.97610892758101
H          -2.29011795480361    0.33231572294114    0.37371787731554
O          -0.06100314827074    2.02961230935981   -0.24580727897446
H          -1.03223118514168    1.60843887889347   -0.39732903891682
H           0.36024172021825    1.33062503297046    0.42463280673957
H           0.45806032320069    1.82583458276743   -1.09383374210822
