    19
        -40.92343658
S           0.61679550149273   -0.75249933877435    1.37772544869570
O          -0.79638120478200   -0.94445739346017    1.62516513067572
O           1.14169463169819   -1.73011223791345    0.42335388921268
O           0.93362266021894    0.61040580178536    0.98101652619721
O           1.37789543823130   -1.00595463635574    2.73372216835734
H           1.14976727730993   -1.90795403997326    2.93581541148977
O          -1.08572654462887    1.99904205083476   -0.03935400989337
H          -1.59569448628596    2.49565995936194    0.60202107127042
H          -0.36361528469291    1.56108328869212    0.46321078277817
O           1.26370871153674    1.19912689392455   -1.60068233024336
H           0.58118234431959    1.87754506109578   -1.64909064057150
H           1.41832046783807    1.06158978898434   -0.64288079825661
O          -1.91534695034750   -0.47085625880038   -0.69120030521563
H          -1.68377051127384   -0.78269375060732    0.21612213813275
H          -1.84559278513284    0.50466743701342   -0.62586429110340
O           0.22112080767523   -1.11418849866994   -1.80013031525335
H           0.68041679135522   -0.20154032181061   -1.91172098143116
H           0.66976794201602   -1.50357868124941   -0.93995977812488
H          -0.76816482654485   -0.89528511407921   -1.45726911671572
