    19
        -40.92120580
S          -0.52316866421314   -0.40817074270007    1.20916196156167
O           0.85665939188596   -0.48433145161804    0.75781208336683
O          -0.77135730749158    0.52955602713415    2.26930837453138
O          -1.44006147509321   -0.26011849894289    0.07823756866426
O          -0.82619524658022   -1.86044660557918    1.80109958428067
H          -1.50599163116015   -1.71070145975865    2.45135054341457
O          -0.28637906142625    2.57965009005390    0.63105935455357
H          -0.18540898150944    3.37123116313543    1.16373746131073
H          -0.52725536857116    1.86253146216934    1.24888407164771
O           0.80094172068490   -2.28023454926521   -1.14784740669711
H           0.22276214601548   -2.99248971229638   -0.86842299819813
H           0.96769372347934   -1.73234319154768   -0.34652286684124
O           1.37815666604871    1.39382913532811   -1.07631483281956
H           1.57478420410097    0.74520725164942   -0.37425208239955
H           0.81275477388159    2.05153227148792   -0.61794482168836
O          -0.28003975054116   -0.16267342768439   -2.10385587729378
H           0.45149070666247    0.56615429457384   -1.83354911149387
H           0.18298975747748   -1.05748060376130   -1.98818370681549
H          -0.90237561352064   -0.15070145244289   -1.25375728912699
