    19
        -40.92079115
S           0.81548486866172    0.03673177770466   -1.24140359774402
O           1.42180371118284    1.33657756102941   -1.37051462298506
O           1.40517742492543   -0.75322204790651   -0.15872696775259
O          -0.63713011582823    0.06123788795102   -1.14079471807963
O           1.12132866785171   -0.75831055103518   -2.57531976324543
H           2.06132330220798   -0.65306223834777   -2.68457306636924
O          -1.74478330250515   -2.15518306279343   -0.28109867111072
H          -2.69589829896268   -2.03057923117063   -0.27199116087545
H          -1.36742843242863   -1.40105339435258   -0.79270696020098
O           1.07282636048399    2.35338210798998    1.04389935824837
H           1.15578863350919    3.30651468823699    0.97710328496908
H           1.30403577376319    1.99645092624173    0.15903706722205
O          -1.15050130888496    0.96325546531862    1.31454634082813
H          -0.38540491478606    1.57507973661496    1.42524876707354
H          -1.19331694283340    0.81608923102128    0.34790410251837
O          -0.22733687113500   -1.33331933944231    1.60891569616546
H          -0.65234645244403   -0.35741478401610    1.67357751521740
H          -0.87683722683715   -1.84611196190604    1.02091685575461
H           0.57321511405085   -1.15706278153403    0.94598052040469
