    19
        -40.91628500
S          -0.58999861941098   -1.04990670028349    0.45516583908726
O          -0.87734569023315   -0.68133109896326   -0.91400503408021
O           0.91563270166811   -0.90132532411420    0.69558205485363
O          -1.32628022456537   -0.34490728234084    1.45330168021180
O          -0.85201695419795   -2.56327516387323    0.63681059323882
H          -0.60971848060162   -2.99906927876128   -0.21917969208652
O          -0.40799767537146   -3.09732182910322   -1.87052771285751
H          -0.55536097869803   -2.13250202881220   -1.86909773081503
H          -1.13390720516019   -3.49237074727857   -2.35936063548158
O           1.14001983254637    2.90447565684458    0.14788555927939
H           0.46420554927250    2.67826625829915    0.82610574604008
H           1.91270257041595    3.19836795678242    0.63384585859745
O          -0.64473234962007    2.18669918590169    2.00836627755384
H          -1.48559200857710    2.64620152820128    2.05189748124624
H          -0.86357546181195    1.24107464295771    1.90059897042847
O           1.51093439722756    0.65313837478260   -1.16793117707835
H           1.43336785086539    1.55183111977980   -0.75145427164224
H           1.30247102450211   -0.28737063938048   -0.05006052443119
H           0.66719171179848    0.48932538926014   -1.60794326224036
