    19
        -40.91023867
S          -0.24978608587522    0.28893313246517   -0.59639875891280
O           0.01989233035032   -1.11897514396098   -0.76306130260090
O          -0.79401913523876    0.93907530771492   -1.74195833586900
O          -1.15438049820397    0.51911299851652    0.60882080277432
O           1.07650555977385    0.97915858698345   -0.14494674664770
H           1.67468494183823    0.90548583120056   -0.91468267612096
O           1.75564494627703    0.16927181905544   -2.55315805022439
H           1.37731036214988   -0.69430613845294   -2.35345351979642
H           1.06960162176689    0.65680054680355   -3.02148297768752
O          -1.24997091529926    3.33279575080650   -0.38167939263666
H          -1.55583201556239    2.89938033855196    0.41725357919729
H          -1.16935723708825    2.63511048334661   -1.04244649442911
O           0.28982722906770   -2.83651757967459    1.25384438097105
H           1.19655552396309   -3.14819257157826    1.22220195878791
H           0.14023290791215   -2.33848738447143    0.42424064011360
O          -0.38001643174698   -0.73050101192020    2.66559475388370
H          -1.15473011178702   -0.92917987957610    3.19755838951703
H          -0.08572148184320   -1.58753535599575    2.25924104998009
H          -0.80644153043880    0.05857028019489    1.46451269969549
