    19
        -40.92011125
S          -0.92449292616913   -0.11987613629964   -0.55392926998248
O          -0.96512177741676   -0.26296101128710    0.91626915591209
O          -0.92775002868923    1.26683648646846   -0.94400531488148
O           0.21886445825874   -0.86523379159393   -1.08780851707732
O          -2.21903861977367   -0.77720537058301   -1.10458196129303
H          -2.05697078160709   -1.74171597269235   -1.02052941959439
O           2.38500693333201   -0.12325237171462    0.17547671123643
H           1.63307639197604   -0.38297392632467   -0.41289131065303
H           2.84263030357238   -0.93514166310663    0.40354071919190
O          -1.07186248562996   -3.14607614528559   -1.07506327585689
H          -0.36252441579294   -2.47144292293684   -1.07548596349140
H          -1.04523805268600   -3.57529523720227   -1.93335003648641
O           0.87944292248413    1.01148690988971    1.89156596002531
H           1.62473938789463    0.62236491108367    1.31412150603343
H           0.01383192388587    0.41276135721111    1.56170857175874
O           0.13904460135634    3.06930690880753    0.60563774958648
H           0.67143710065434    1.93557827924758    1.49306556287446
H          -0.24446254861271    2.49388067898662   -0.10307077583066
H          -0.59061238704501    3.58895900733073    0.94932991853093
