    19
        -40.91317285
S          -1.33388455239434    0.51411999382736   -0.76282946984066
O          -0.36600204982731    1.65908856847037   -0.51423532770001
O          -0.61290970382095   -0.62039866268140   -1.28323106035588
O          -2.17587608904631    0.29457609359313    0.35897434460902
O          -2.24840780721797    1.04719642191166   -1.93242016941233
H          -1.78249826320735    0.94322182815859   -2.76037321209697
O           0.09033191228878   -0.25547580742945    1.90119726411829
H          -0.69199572556224    0.25028491460440    1.65805453495829
H          -0.13846869371271   -1.18241536534098    1.69129863519650
O          -1.05146675397270   -2.42147486628713    0.74144760617194
H          -0.85477907209589   -1.98766404417359   -0.10234802432977
H          -1.95813897976017   -2.18317166247280    0.95084102879589
O           2.57908618487795    0.31335980826368    1.11912245333772
H           2.86904092119397    1.06917537012781    1.63254518315403
H           1.69959595060339    0.05830837559190    1.47984152838974
O           1.77034679280172    0.71265408424934   -1.31481853123539
H           0.59609660559584    1.36319147207204   -0.87462689079843
H           2.23576381532308    0.56368624631207   -0.44074410693329
H           1.37416552792983   -0.13826276878575   -1.54769578598962
