    19
        -40.92453849
S          -0.24122551574092   -1.44703994958890    0.41274418817102
O           0.87301468063807   -0.95354770190679    1.21390116352156
O          -1.45865044543326   -0.69677586346080    0.70158162158425
O           0.06551070822931   -1.48427120842275   -1.00163671816629
O          -0.50432881311059   -2.94098588543134    0.85297353030412
H          -0.70268243400157   -2.89199999799818    1.78365062385818
O           2.16191595475457    0.24989649269807   -0.69693735484279
H           1.95828247176122   -0.36512500004171   -1.41112815050871
H           1.84858736788370   -0.22382292434451    0.11371599603591
O           0.36568854788742    2.01816791897246   -0.71801950106149
H          -0.38646863034434    1.52053132978521   -1.24936273448436
H           1.19990541912176    1.38849051155740   -0.77754073138545
O          -1.38039859465608    0.53312371701617   -1.76636827058508
H          -0.86976140095931   -0.30881564685255   -1.67769047510386
H          -2.08332549020557    0.44036724146166   -1.11233661196467
O          -0.36881014163249    1.46468688560317    1.62746811186573
H           0.39512102550182    1.05387772708926    2.04913470280271
H           0.06510829036606    1.94996450222806    0.28105987689492
H          -0.93748297969033    0.69327784113848    1.37479075293797
