    19
        -40.91814163
S           0.67222275353764   -0.65235879525754   -1.49589463916947
O           1.17614842211098    0.49646844948603   -0.75093169959976
O           0.03288378077613   -1.61213473159356   -0.58588560433735
O          -0.13875309348431   -0.33271841315692   -2.63502309878760
O           1.96854544138368   -1.39003750580879   -2.04676170424342
H           1.65794368040200   -1.80152603751413   -2.84752471511231
O           1.63250197500764    0.45137005789708    1.79940328426895
H           2.48410280032083    0.03812037547300    1.95303809798532
H           1.55562748910158    0.57201833665638    0.81718283536702
O          -2.24828921907234    0.75015562063243    1.27390175457934
H          -2.23036785176681    1.53943002448679    1.81896534363942
H          -1.99677494281797    1.04008960341444    0.35598284936130
O          -1.27099204519166    1.52386911668905   -1.03058140962568
H          -0.31467975695943    1.49582967356492   -0.86263200121526
H          -1.36373059299975    0.96180941273714   -1.81260266383749
O          -0.46205372380639   -0.98760203898704    1.74045001600329
H           0.37081311356187   -0.42551656421913    1.93581207557242
H          -1.24772847508159   -0.32539438550113    1.62857665345946
H          -0.27741974502624   -1.34187220900515    0.74452464568888
