    19
        -40.92021776
S          -0.03127565648052   -0.95686898567233    0.46066949722852
O          -0.89557554687570   -0.45135786249125    1.47977280365319
O          -0.60183176396436   -0.97281109423003   -0.87490863319605
O           1.28255426866381   -0.19850415499885    0.43455312072052
O           0.39131940552616   -2.39679973182216    0.82652842858517
H           0.76014108408692   -2.78664591276545   -0.00463270302952
O          -0.90382794830244    1.56609826426607   -1.70026697355020
H          -0.66912224336812    1.58750577070528   -2.63000273807942
H          -0.93785327321263    0.62533512243897   -1.44161358144757
O          -0.80228468782281    2.08802921751201    2.35002731901549
H          -1.01799322822482    1.16797955517540    2.10511772011994
H          -0.45033187265661    2.05377684176796    3.24147827260062
O           0.87809946578418   -3.01110009374158   -1.65578552410781
H           0.31531779453402   -2.21545840956735   -1.71173112443396
H           0.36331224748852   -3.74394878949936   -2.00254628988967
O           0.78898127705872    2.20957050046869    0.24241582103848
H           0.22943647910956    2.36304814226228    1.04358738643508
H           1.13919809661545    0.88399861896937    0.35468130077654
H           0.16173611203841    2.18815299121773   -0.51734409242822
