    19
        -40.90733256
S          -1.64676696921071    0.74472454275180   -0.52857420736466
O          -0.67949379485432    1.92682243271251   -0.63509039280758
O          -1.62854092345853   -0.01102837289471   -1.73855117406254
O          -1.44983652316709    0.05906173272588    0.70749588974726
O          -3.05482424588118    1.45774883894129   -0.44560083823636
H          -3.33048174319333    1.63119542194082   -1.34340511337731
O           1.16797340616334   -0.47977033679043    1.17541170189382
H           0.21019275492006   -0.61369689069039    1.24747234203211
H           1.31887593835257   -0.41137718086830    0.20397644983497
O           1.61396441292225   -3.02915793915752   -0.10867551379054
H           1.55190955412519   -2.39957676387883    0.62385128229874
H           2.52225656276166   -3.33486481182845   -0.13113198479027
O           1.02515920201277   -0.65236514957425   -1.47649725701136
H           0.11870023855181   -0.48013241581996   -1.76674085823379
H           1.11505343580996   -1.61614517341180   -1.40161669718786
O           0.51658843511817    2.04318424111498    1.58624540031515
H          -0.16602982131679    2.06073794817612    0.24901357951915
H          -0.17471917953676    1.94397000942783    2.24636611978773
H           0.97001925988738    1.16066985712433    1.53605127141610
