    19
        -40.91070904
S           0.62440616451212   -1.64081011500947    0.68154098935873
O           0.68780216337245   -0.86913714182108    1.88621747117197
O          -0.59943763577927   -1.22053527187808   -0.13355667420521
O           1.76823542281083   -1.67545615487231   -0.16474962062257
O           0.29312950641054   -3.12659184747650    1.10339677530712
H          -0.03316590532572   -3.09124455922191    1.99989584899341
O           2.34189979199655    0.67103638851630   -1.38594258048109
H           2.23596290205499   -0.17071770113614   -0.90762058627301
H           2.99733272789762    0.51318619054223   -2.06816852400358
O          -0.29392899786924    1.05470590649331   -1.86241167598377
H           0.67873182396796    1.09557554358037   -1.76936802652768
H          -0.53095477023297    0.15294341459044   -1.61778226097234
O          -1.45067884851970    2.42384675327076    0.08250675465888
H          -2.23064830549789    2.84325065131016   -0.28417305437891
H          -0.97018454162083    2.01678179973572   -0.68342187015516
O          -1.70974573117017    0.25665968428669    1.49074445654363
H          -1.19529959545229   -0.60759150755490    0.52592096225085
H          -0.93578719890696    0.22449724622497    2.07384909925757
H          -1.67766897263404    1.14960071042191    1.03312251606075
