    19
        -40.92343666
S           0.70351237120805    0.73667988187486   -1.34440827448277
O           0.50134158062336    1.97073682846745   -0.58378349992114
O           1.84860379199071   -0.00944523257422   -0.86803288342249
O          -0.50622803984583   -0.06909157004870   -1.39410375366435
O           1.00200464058495    1.17617337896516   -2.82757496935061
H           1.78229346100833    1.71375433226047   -2.73418185456823
O          -0.51819223902091   -2.20910528469417    0.17676271962306
H          -0.18486779484888   -3.00892093933628   -0.23221413553301
H          -0.48433185055850   -1.51186608550281   -0.51499168199331
O          -0.32188503281377    1.29262466233870    1.65941485273687
H           0.02770460464792    1.72860547205530    0.77569463080687
H          -1.21920483773904    0.87826356262437    1.37756189833950
O          -2.29070406402110    0.09062440205744    0.58370730790505
H          -2.27952986292561   -0.84345657498665    0.82000359235119
H          -1.85674397575987    0.13649465618564   -0.29360684142128
O           1.19461339266393   -0.68262540720157    1.57357109917063
H           0.59455851878444   -1.41076435871275    1.30816650555815
H           1.65994617371831   -0.44610613655956    0.73595319489187
H           0.34710914714695    0.46742441021715    1.78206212779413
