    19
        -40.91209439
S          -0.01617812591361   -1.21303283043009    1.52025821254486
O          -0.27206055570679   -1.77057283408752    0.12635155670908
O           1.36498493654802   -1.34167824356264    1.85428942783975
O          -0.62214782727135    0.07835923964588    1.65080543656718
O          -0.82472251392288   -2.19083329145684    2.46568417222973
H          -0.27319965737306   -2.95017225764250    2.64533607951559
O           1.76994692643985    1.23386090720385    1.00036638004601
H           2.10431991260742    0.37621964428676    1.29392593227892
H           0.86010651954560    1.25327076468250    1.32527795970734
O           1.53716413622559    1.38177146369286   -1.66466372478933
H           1.66405319011329    1.29776670735996   -0.69267995549241
H           1.93555671743975    2.21966546026797   -1.90730980498134
O          -0.99903645396831    1.06098938418006   -2.41910361847439
H          -0.94456708091077    0.57205942928209   -3.24203488532548
H          -0.06826493466822    1.19380173042570   -2.12132632348417
O          -2.17918432361444   -0.34566634896966   -0.54979178686328
H          -1.12022515781279   -1.25940290974736   -0.25292913864121
H          -2.09927895313733    0.18320281310968    0.25585830942968
H          -1.81726673453870    0.22039119175731   -1.28831422888656
