    19
        -40.92246909
S          -0.84926455055106   -0.43414131845407   -0.48544592735595
O          -0.56510496838604   -0.35562598247425    1.01226832566094
O          -1.27101225309745    0.86582325544523   -0.95296744622693
O           0.26638792449395   -0.99913963244745   -1.18253878773928
O          -2.04010582886136   -1.41518769106314   -0.55214292297366
H          -2.77618174175781   -0.92730725382066   -0.10482089649139
O          -3.38486115336719    0.45181266705169    0.65973484485889
H          -2.84378736753621    1.00042631868940    0.06873137135036
H          -2.99102780617391    0.52229051378147    1.53389578246511
O           2.65996697223981   -1.47790827230924   -0.05560261651739
H           2.69350982346119   -2.38707949930437    0.24639279234151
H           1.85699890229456   -1.39782410184560   -0.60482321150595
O           1.24704890267449    1.83961568826231   -0.96656622926410
H           1.66101409516496    1.32209871710134   -1.66181112476584
H           0.29030201979380    1.68954843834757   -1.05593582324096
O           1.69583870572195    0.57467182688033    1.31630824690887
H           1.67218380618649    1.23513296003272    0.58174094208981
H           0.42965484278055    0.05944452598511    1.23210535068143
H           2.24843966490396   -0.16665117983617    0.97147728974670
