    19
        -40.92135276
S          -0.56139418523746   -0.48394562877715    0.48807363086692
O           0.39065504173001    0.38139738475397    1.21279630059365
O          -1.34404226698326    0.29469070578229   -0.44755319754963
O           0.13672563556912   -1.59207138874578   -0.15640493363328
O          -1.53297913693570   -1.07245919902245    1.54716274713326
H          -1.01840274040746   -1.78501551085670    1.99042390492774
O           1.03416997648719   -0.08039604520064   -2.11605165024855
H           0.79677381613429   -0.78209848671306   -1.46843726581962
H           0.21094818604439    0.13779451545663   -2.56267653562803
O          -0.82617213710678    2.82773816473952   -0.83409379843228
H          -1.18047536246093    1.90854159297313   -0.74685048514360
H          -1.22557278157773    3.33769776468578   -0.12671584678485
O           0.14864382964708   -3.02028710030804    2.05675046828520
H           0.41894372126381   -2.66558251212600    1.18708751589141
H          -0.16032412395630   -3.91650940292631    1.90410008535995
O           1.47438247158673    1.80215766922867   -0.45307790386080
H           1.09141991737594    1.19169346097744    0.38588298793912
H           1.47500794299278    1.11412852547601   -1.21231868011321
H           0.67169219584562    2.40252550061384   -0.64809733378074
