    19
        -40.91885166
S          -0.82193841052522    0.60810868568790    0.68120102219690
O           0.60708718671342    0.83490743575525    0.30207686959118
O          -1.58107990612479    0.26798126568197   -0.50367749860121
O          -0.91086597730043   -0.36922698533064    1.73761815432775
O          -1.33159715668611    1.96594951796058    1.24179584017313
H          -1.08860296774282    2.60767265111974    0.54437668855173
O          -0.53056100051759   -1.50071844992238   -2.05203109668689
H          -0.49518891438895   -1.09929379287292   -2.92289237466275
H          -1.06577122809085   -0.87892352548250   -1.48430920599735
O           0.01888257973777    3.22726582432296   -0.65136150001185
H           0.45489618103780    2.36877780500939   -0.49037129404841
H           0.61892407729184    3.90637784481372   -0.33458269899177
O           0.55919933900659   -2.49290340262306    1.54136704636511
H          -0.10973438014057   -1.77193837270143    1.68387212134613
H           1.08886389200387   -2.52543981820548    2.34077312838419
O           1.45728303876566   -1.33656526983829   -0.51547427753522
H           1.20004563081663   -0.36179056807882   -0.17206309156865
H           1.20034800432795   -1.93426983304708    0.28927891816688
H           0.72981002638867   -1.51597104249732   -1.23559674413972
