    19
        -40.91892667
S          -0.74513146154367    1.02890547011192   -0.66568067832882
O          -0.52776937290202    0.84442199022167   -2.08437063471015
O          -1.43866445167733   -0.13080324724766   -0.07445572954142
O           0.43878961035861    1.36148465746839    0.08723748677082
O          -1.74505318643169    2.24324353472879   -0.50342107787069
H          -2.38081725914891    2.12471052061805   -1.20302242763093
O           0.31971639009999   -1.87076511493982    0.10963038066150
H          -0.51311214453013   -1.22924234566461    0.07075667733178
H           0.76113773993339   -1.71527865296741   -0.80060579819775
O           1.18287384227977   -1.10968644871494   -2.15606467566293
H           1.02218833875778   -1.61049873504284   -2.95880999845072
H           0.61114300209520   -0.30163003556508   -2.21232882806296
O          -0.60640342908845    0.70883628128439    2.49061154921502
H          -1.37903679571244    0.23289446912248    2.17224270944774
H          -0.31644415449074    1.24335364747231    1.73246834305943
O           1.65175700309291   -0.49199958693226    1.71568897328705
H           0.95192664612807   -1.40512601504725    0.83110039230001
H           1.77249136824798    0.26776712291853    1.12407254168227
H           0.94040833445603   -0.19058751197028    2.32495079466462
