    19
        -40.92120618
S           0.46781228923832    0.06178956383531    1.29533194169991
O          -0.07894617935486    1.28310113302892    0.70321795942676
O          -0.31314861868498   -0.43669004827947    2.39381740567499
O           0.79275028494103   -0.91704652503371    0.27056644641633
O           1.88406055684768    0.48983272491354    1.89714419375606
H           1.68839152869387    0.75158386289691    2.79185589020095
O          -1.18686155418245   -1.13185555922614   -1.51609081323832
H          -1.87409974452423   -1.02484417141721   -0.82393107930385
H          -0.40218235877764   -1.40910293482296   -1.00625876009792
O          -2.43395837399266   -0.75810813236659    0.80637265267190
H          -3.06812163801757   -1.31171194347795    1.26690880958624
H          -1.70206643236357   -0.60059849249911    1.43383677699990
O           2.18073014541101    0.44492600242258   -1.48366686739532
H           1.82883213258127   -0.19144355384528   -0.81926440967794
H           2.77128428813102    1.03022017376566   -1.00582547991392
O          -0.26056745729975    1.17183330638300   -1.76118277081019
H          -0.27825300568887    1.34884900052158   -0.72328638541672
H           0.72493515247377    0.97990723289081   -1.90463712656136
H          -0.74059099542711    0.21935836027066   -1.81490838403495
