    19
        -40.92267745
S          -0.28511255197177    0.85739376645191    0.56369844053790
O          -0.76085247881763    1.47959211131022   -0.66304442746184
O          -1.14542791775523   -0.20719162379879    1.02750709534350
O           1.10027374528996    0.36129044520311    0.36946644568676
O          -0.20559719008624    1.93636459834389    1.67924460178084
H           0.36148615005869    2.63033199556351    1.27552846944815
O          -1.19562166475330   -0.78019852080751   -1.91752855362306
H          -1.97093977131387   -1.12342851890367   -1.46473462934133
H          -1.09465616805178    0.14743259701469   -1.59595350833323
O          -0.38761224601373   -2.70087701634858    1.14767089959556
H           0.06754890150897   -2.85252404222146    1.97822124447703
H          -0.80647350400172   -1.80769886380794    1.21868713051726
O           1.27526620379336    3.15483698926883   -0.11081594677041
H           0.54777848794004    2.83737458499167   -0.66953477524176
H           1.94614837745047    2.46532842831053   -0.14545824378416
O           0.88495253833314   -1.76308495589156   -0.84119745186740
H           0.46740456673386   -2.32512577865376   -0.09260152119509
H           0.08795652254606   -1.47834502723720   -1.42966346540870
H           1.11347798880953   -0.83147117843755   -0.32949180378455
