    19
        -40.92179446
S           0.84877786865316    0.27138405209840    0.36260345452107
O           0.05952561509698    1.00803285998181   -0.75499718890392
O           0.05478953386819   -0.85947412879005    0.80007900100369
O           2.15494145607651   -0.06138001415805   -0.09567215990638
O           0.90257688493888    1.31938419786577    1.46901542685477
H          -0.03106399415215    1.74516672857238    1.53813198260384
O          -1.46262461991469    2.21058555033948    1.39590169976508
H          -1.53404957182766    2.42828488640043    0.46174663217234
H          -1.97531909854995    1.37277186032438    1.51918771990823
O           0.94427137897364   -2.44284320240008   -1.20639600194936
H           0.49523919170800   -2.05316018051448   -0.43720380488991
H           1.85865728675946   -2.55693683421977   -0.93405781892203
O          -2.42082838913696   -0.24034176944847    1.55474543586924
H          -2.59969183393478   -0.67047008917181    2.39310257494601
H          -1.56569036033321   -0.59695321198594    1.23773513113716
O           1.03262365957324   -0.25752596094137   -2.72197967096404
H           0.92602052965741   -1.16516491246113   -2.34584519096540
H           0.35046206952764    0.58651175893577   -1.63651206300830
H           1.96138239302555   -0.03787158038326   -2.59958516928079
