    19
        -40.92218952
S          -0.19451046707954   -1.01150011968711   -0.52790688019208
O          -0.95109885610679    0.08326762983710   -1.12684842535399
O           1.22644344036934   -0.68680686837051   -0.45419236315279
O          -0.72781768539285   -1.37198511411449    0.78573062081831
O          -0.36086521634911   -2.26948233716182   -1.42957194063247
H           0.01087786678325   -1.96380971595244   -2.28300990043953
O          -1.64818032128581    1.92919031546056    0.55535873268509
H          -2.60727002976508    1.96053778839006    0.54239599452924
H          -1.38349110424868    1.30296910543575   -0.17132921631683
O           0.75627927607417   -0.61841655670590   -3.14708500050280
H           0.04794723527669   -0.00892905468743   -2.90080053528796
H           1.43099581347568   -0.50064763455426   -2.46520286524808
O           1.88959707775526    0.68469412566869    1.64393374627620
H           1.72540062056697    0.20753872407380    0.78630165258887
H           2.53109143656967    0.15592164730538    2.12333725778179
O          -0.53224111648789    0.53609850325408    2.33987322021061
H           0.48007162152352    0.70198654070828    2.20170721825866
H          -1.01581802148252    1.22862626187749    1.74131696547773
H          -0.67741157019894   -0.35925323076777    1.78599171849706
