    19
        -40.91955363
S          -0.66044098737157   -1.45854424455051   -0.03763436529536
O           0.61903237023307   -1.38942412938702    0.66481084923203
O          -1.63008160736455   -0.55332958470627    0.58315715185855
O          -0.52707832538224   -1.25780504620397   -1.45703680922042
O          -1.23309917623823   -2.91716423532918    0.18009070160650
H          -1.56833060446410   -2.91075481306252    1.07185857468339
O          -1.31350686491189    1.19941763862242   -1.49356369961245
H          -1.95690386600701    1.02755588443828   -0.79281229923645
H          -1.00376429176017    0.28863604110599   -1.73235713448495
O           2.23085903915661    0.06942622906931   -0.74989553170455
H           1.65233531849287   -0.60421400002654   -0.30763641026550
H           3.11983628831661   -0.06252404769808   -0.41549815510046
O           0.70309163144675    2.03100425161399   -0.26381324677257
H           1.41689913108169    1.35140492054557   -0.54746582724058
H          -0.14483917642853    1.79717889631150   -0.85811364433293
O          -0.00738178177656    0.95428902535108    1.89914517119406
H           0.42910340765986    1.72346962775785    0.70021186953213
H          -0.77511945297740    0.45143674931413    1.51985021320518
H           0.64938895824936    0.25994082688062    2.03670258194416
