    19
        -40.91979949
S          -0.11342354673937   -0.53965675799603    0.95742296832065
O          -0.86299438023412   -0.80217130185007   -0.25164300465775
O           0.90255492428567    0.58851302113585    0.62919483973229
O          -0.90909774958517   -0.19307740687750    2.09009338103430
O           0.78595945727105   -1.71791641644831    1.30424513112022
H           1.46565190649362   -1.87878222090615    0.55708112856035
O          -2.09846730155520    2.17574329369085    1.61642299678343
H          -3.00863943983226    2.16878315543537    1.91806037950116
H          -1.69226759716558    1.35259759294054    1.94751651206094
O           2.35265314636767   -2.10057125682150   -0.66143736832005
H           1.93220725845671   -1.54101045644336   -1.36239198440178
H           2.28451033722161   -3.01074326237525   -0.96005229125647
O           0.86014667918704   -0.64068384214512   -2.26679930405873
H           1.01805398727134    0.30356627279877   -2.33813612776968
H           0.10546387651440   -0.75033940890072   -1.65300482645659
O          -0.81387251225037    1.92258501868233   -0.71146051412045
H          -1.26514032620244    1.10181986128767   -0.94912319907686
H          -1.32791862412511    2.29104541474876    0.03632880245824
H           0.38461987462996    1.27029872005752    0.09768246053464
