    19
        -40.92123229
S           0.30033144511911   -0.36353270613887   -1.11539140147176
O           0.15172370017104    1.07492317545864   -1.21137516667983
O           1.52040954247747   -0.80995924661701   -0.52593032584733
O          -0.91239144613022   -0.91365750120955   -0.36515994219111
O           0.14306251549480   -0.98335009026521   -2.51944673159788
H          -0.69660881945975   -0.59105872787279   -2.86393554545037
O           0.40887718441385    1.94849670314149    1.30545354333143
H           0.04451594116094    2.83301937276899    1.37578409388268
H           0.42705275067577    1.72937511754018    0.35343486587593
O          -2.02216585266729    0.45386790094004   -2.67691463786365
H          -1.43057283354324    1.06524856124860   -2.20899238132208
H          -2.58689424326867    0.05387242942313   -2.00924016770954
O           1.80156107287529   -1.52847120651508    2.05316319202802
H           2.50659067548178   -0.97753727243174    2.40013730331791
H           1.82880072119013   -1.42089821559197    1.08413127611981
O          -0.59012628991337   -0.41269413334573    2.02958910092645
H          -0.28676205390656    0.52029493553987    1.95723941479549
H          -0.83600560681865   -0.74311822922400    0.71149844501617
H           0.22860160665477   -0.93482086677866    2.22595505481492
