    19
        -40.91892660
S          -0.38508149690148    1.36224035793574    0.23194186877680
O          -0.29749538118863    0.83442271687357   -1.14266113144916
O          -1.74596996045544    1.32696336891870    0.72265924504165
O           0.58199049006632    0.72647668165973    1.09195219754823
O           0.03057888636300    2.88398711473216    0.12410176690859
H          -0.74404778237595    3.31944797448716   -0.21939966531040
O           2.48463466044781    0.49127777311045   -0.81127587648975
H           1.98901969353912    0.83808662199334   -0.05071861585803
H           1.92768889503794    0.68108209290545   -1.57196078381072
O          -2.22732145383428   -1.21846589667467    0.91373361292742
H          -2.09119321805242   -0.23751941721398    0.96353609481279
H          -3.16279024258753   -1.35319560426956    0.74704522103244
O           1.66089379016434   -1.71800391451202    0.44691404814887
H           1.36887160938485   -1.12308677989701    1.15584326262768
H           2.23759919636731   -1.14282341620573   -0.10495150364983
O          -0.46377984456975   -1.62560528960401   -0.86932412209596
H           0.44495830612489   -1.80440969596878   -0.34105546679658
H          -1.20919156322969   -1.63500067458069   -0.16757261634483
H          -0.39936457457451   -0.60587401410332   -1.11880751591878
