    19
        -40.91145346
S          -0.27556961690863    1.57144568202348    0.11055743083954
O          -0.53770400734044    1.39665894035684   -1.30364364948821
O          -1.40490343584475    1.07055683929764    0.91651434342451
O           0.97394008206908    1.00397404648360    0.55866820291502
O          -0.20772837677849    3.11955569430520    0.37788313166789
H          -0.92578865361314    3.46867040947919   -0.14167462355787
O           2.29715639264083   -0.57028795391781   -1.38461216344529
H           2.01084988342977    0.10055203278590   -0.75282389495633
H           1.50188497024775   -1.03885890186615   -1.65138653325135
O          -1.29585188874901   -1.37693779971951    0.80086419396910
H          -1.45920463605612   -0.31093659631382    0.90846853635621
H          -1.07771161556372   -1.46811389614609   -0.19133927242359
O          -0.63898874096738   -1.15371310005708   -1.65404489799470
H          -1.21276526613718   -1.36624336716773   -2.39300364646043
H          -0.56240470999197   -0.16060210853662   -1.62977457292119
O           0.97818713459789   -1.26923511682520    1.89079049020057
H          -0.40127191253011   -1.50888772375519    1.30087521848255
H           1.17835310760861   -0.43207879085129    1.41099725601182
H           1.05952129988704   -1.07551827957674    2.82668444063162
