    19
        -40.92343571
S           0.64093810854373    1.49542490181384    0.44558653424664
O           1.87666452532053    0.76780101983177    0.24938980246583
O           0.06669929529470    1.94816271505129   -0.82218590320638
O          -0.32567862654042    0.75170018288529    1.23788201266494
O           0.97946283032420    2.79544295802230    1.26856723141455
H           1.61613096716809    3.23472089982396    0.71340980572146
O           0.01485033541264   -1.88075503269005    1.28014961018848
H          -0.04836655030914   -0.90724668187880    1.39887749384056
H           0.57138822519630   -2.20176092763285    1.99093319535576
O          -2.29424529765361   -0.58122997038902    0.02504242051354
H          -1.79447879503903    0.05533958866059    0.57739926986015
H          -2.08152938573483   -1.44816078451381    0.38797025023811
O           1.15060220110299   -1.35498933613337   -1.09699232926039
H           0.77635652123001   -1.82812770243526   -0.32462433864830
H           1.63034825097007   -0.59234308673352   -0.69449018931744
O          -0.80016309934180   -0.07464348787933   -1.97242928902852
H           0.03170858492475   -0.70354889380571   -1.73851017371141
H          -1.53545987835892   -0.33230116262522   -1.30224842141932
H          -0.47522824252718    0.85651480060249   -1.62372699192004
