    19
        -40.92246923
S           1.05399553773363    0.18304672686056   -0.03443977400537
O           1.29818228159377   -0.97358399345374    0.79561963178441
O           0.71447383134028   -0.10511536761188   -1.39500434723260
O          -0.02364673617010    1.04463521869917    0.61900143501915
O           2.29014349318925    1.10784280159837   -0.00331333365467
H           2.49079515059417    1.20507650580451    0.96132954697204
O          -1.67042291462823    0.45548897582928   -2.50333590565723
H          -0.75389719703923    0.21457926046312   -2.26965261988018
H          -1.62371372288215    1.30120619028150   -2.95232896617078
O           2.17984774479953    0.83639201916732    2.58013230965994
H           1.93394977206225   -0.06409470661524    2.31228999947445
H           1.36680887607253    1.27252916427819    2.85025915734018
O          -0.93414723908903   -2.23605538251998   -0.04894004841263
H          -0.73537431083887   -2.40310805930714   -0.97362643592407
H          -0.09159595685915   -1.97812987364713    0.36272654662147
O          -2.22046597503986    0.07657770350758    0.06251256244503
H          -2.26780041275310    0.26874751962592   -0.90394891218699
H          -1.96887365497006   -0.87715267776073    0.11851249481663
H          -1.03825857705356    0.67111795480430    0.42220665898829
