    19
        -40.92453842
S           0.30734896756596   -0.89343327035077    1.19577137629722
O          -0.23032676733187   -1.74183082861808    0.13771328218149
O           1.56618839930516   -0.28460284625265    0.78162928064330
O          -0.65258664627959    0.08276811577169    1.66657338563217
O           0.62734815680546   -1.83430051201642    2.42343936407990
H           1.25466308403848   -2.46937850730950    2.09030207735627
O           0.68115642575197    2.13615477787080    0.44217114693456
H           1.19010620654398    1.30290410589154    0.60529960563964
H           0.03415204193543    2.14960188871792    1.15694071804377
O          -0.52580972443215    1.34509084958903   -1.62401104860583
H          -1.35490625564714    0.87400255492803   -1.19298980746537
H          -0.03621202496970    1.81365592961612   -0.82555297196456
O          -2.27509966838154    0.04144956622162   -0.36105230682670
H          -2.14978725328407   -0.88358002909925   -0.60402987710261
H          -1.83862031772533    0.10885178681253    0.52345244915078
O           0.98250893264068   -0.65679460914130   -1.87950753427599
H           1.80205818126045   -0.42404956810115   -1.42761042843604
H           0.50727860261291   -1.22507949333075   -1.22115828119967
H           0.11053965954711    0.55857008898820   -1.88738042007226
