    19
        -40.92120595
S           0.70262365148786    1.18388353237661    0.08713670749566
O           1.18376778572816    1.67202062790259    1.35015377080430
O           1.41519451445572   -0.00395495489101   -0.38447025869700
O          -0.73695718712973    0.99909562766792    0.00126433772113
O           1.02163568301827    2.31571263417612   -0.99374458985413
H           1.81129243317215    2.73539961127663   -0.66563539968739
O           0.53681168521410   -0.62437990019162    2.54455954204250
H           0.54729465178268   -0.47751880201654    3.49275155358185
H           0.84413455195320    0.20788138424035    2.13571352878200
O          -1.45806479981566   -1.39299156724390    0.95874338414163
H          -1.56722045692961   -0.45714435531018    0.70437356084329
H          -0.78413774741560   -1.35195406624054    1.67099279342083
O          -1.11684047600964    0.10009724681037   -2.42873626845722
H          -0.54023703480283    0.58776035862055   -3.01987419397321
H          -1.10920657722897    0.58869192867418   -1.57339076859726
O          -0.09840122711598   -1.83031886457297   -1.08693607444354
H          -0.72821466010760   -1.81846776597509   -0.22430499686416
H          -0.58531036723971   -1.26891919978628   -1.77731983552277
H           0.66183557709215   -1.16489347550878   -0.79127677276862
