    19
        -40.92052671
S          -0.57218072509887    0.57365329462203   -0.21879302213603
O          -0.86977089805606   -0.83190922876524   -0.09771394009490
O           0.80105329952739    0.90340878961088    0.07114610858303
O          -0.96038992189175    1.05042818716379   -1.62121316666631
O          -1.48945111416754    1.40172022109744    0.68565233842031
H          -0.99606508156968    1.51987796370389    1.57935861711456
O          -0.40317262546377   -1.25425702507464    2.51758879684275
H          -0.52431805524354   -1.25088456569626    1.54925542348186
H          -1.16893336569415   -1.70043231521932    2.88515429492580
O           2.09103364384792   -0.43501502815359   -1.87359833213081
H           2.69180879465721    0.17656503028373   -2.30441985476691
H           1.75270777663696    0.02271285363722   -1.08099377784540
O           0.00513436740915    1.37087039854288    2.72026229170337
H          -0.08408192708668    0.40375545516579    2.88159201495596
H           0.81654199126889    1.47152660939877    2.20869345799102
O          -0.31236570275455   -1.06547682818299   -2.83663854312881
H          -0.64279633705116   -1.64596600508128   -2.14083409715914
H          -0.78741255956687    0.26410497709110   -2.25983172219865
H           0.65265844029471   -0.97468278414634   -2.66466689787184
