    19
        -40.90614291
S          -0.88256346179989   -0.68963564547563   -0.18957567495751
O          -0.67385576035236   -0.91616424900866    1.21599556916674
O          -0.65463390791811    0.78093661740563   -0.49705582607684
O          -0.17300530812633   -1.51829461871580   -1.10187599335265
O          -2.42304321741930   -0.90440075417690   -0.46627756600323
H          -2.91697596745960   -0.65360975318336    0.31261674518258
O          -1.63106472911960   -0.58236916239805   -3.30357308612673
H          -2.48395639508872   -0.78115950084629   -2.91348991515827
H          -0.97424404560958   -0.96527158456448   -2.71173386682582
O           2.46926465825091    1.54175507560238    1.11749005763900
H           2.46770236699339    0.57937052187867    0.93395822163792
H           2.74887937470188    1.97428245378451    0.30861355420051
O           1.99155908154900   -1.05867638197912    0.55817987225665
H           1.23810308385728   -1.25162707728084    1.12977872708743
H           1.72271827398460   -1.36632395183796   -0.31450667278838
O          -0.07052314245911    1.74998401824769    1.71210078115071
H           0.91713980960909    1.82207191965524    1.59815237801185
H          -0.45098066891402    1.30211488647199    0.40036113195340
H          -0.22052003413091    0.93701717605416    2.21084155333637
