    19
        -40.91039664
S           0.74522107856206   -1.31975029129304    1.20374042899947
O          -0.53126680370663   -1.82141064112575    0.65080134251947
O           1.80495586258988   -1.42721533275285    0.22119585120293
O           0.58930063554865   -0.00789589417467    1.77849396869357
O           1.10486869692576   -2.30578114539255    2.37921520302592
H           1.34348343108130   -3.11082964054773    1.92896190366656
O          -1.31966738305133    1.54528996932223    0.96021096779342
H          -0.55562851951144    1.04883416589590    1.35173161639393
H          -2.00059336519459    1.57284843397587    1.63457439063495
O          -0.33839099424132    2.53724434465600   -1.54415338576257
H           0.46414961667118    2.01030227985838   -1.60572972900262
H          -0.53223688326364    2.63956882762541   -0.60773005602134
O           1.02639310521638    0.02656928043965   -1.76806873453735
H           1.34416346241900   -0.37381167899196   -2.57969210694794
H           1.42376813712828   -0.49417707734852   -1.02105820646508
O          -1.39973370266275   -0.17719118502279   -0.94211226131832
H          -1.52457912829017    0.62202619409489   -0.32495392165011
H          -0.54407556011834    0.01181919932077   -1.45556847630388
H          -1.10013167618921   -0.97643979853339   -0.25985878464618
