    19
        -40.92071445
S          -0.94473237931531   -1.13265248763560   -0.14511633772990
O          -0.77650602889438   -2.24677226463014    0.75934927734250
O          -1.34133743729350    0.09690519390334    0.50151296224238
O           0.25803559043809   -0.91730901754626   -0.97381526860633
O          -2.09229799951779   -1.53302084638042   -1.15479030241475
H          -2.01679920088302   -2.48069328455400   -1.22146437335658
O           0.17371515993024    2.22087166838906    0.18822677510779
H           0.20298582225899    2.25598638111315   -0.79124086043134
H          -0.59194515184994    1.63002926397475    0.37517438965896
O           1.73205015301419    0.34837364594738    0.62592695138314
H           1.29966185405985   -0.24038897883799   -0.09519932715342
H           1.17002847927434    1.28303334839009    0.49312769770535
O           0.23778887402696    1.39003494254983   -2.34240621712706
H           0.16200660698446    0.48741539973713   -1.97400554782853
H           0.87887437962592    1.34325297822642   -3.05318148309756
O           0.47367761914066   -0.77421003584890    2.52614398273135
H           1.37659937908693   -0.06696176764068    1.49886718150343
H          -0.23891508012181   -0.18591382085510    2.79270180825624
H           0.03710936002960   -1.47798031830082    1.99018868180988
