    19
        -40.92158875
S           0.82084217490558   -0.93145728873290   -0.80005072347452
O          -0.16590606099878   -0.07185732112320   -1.46767760772814
O           1.13685126109035   -0.41603585374083    0.52340480260749
O           0.45382638690090   -2.32062084182115   -0.84273965850132
O           2.16327055706422   -0.77922126883533   -1.62831701791073
H           2.06175333425641   -1.38873688882479   -2.35308065938651
O          -2.01157549773995   -1.74910359318329   -0.01470124129342
H          -1.15395802524865   -2.13868343977778   -0.27494558000793
H          -2.36780899946898   -1.35989079585649   -0.81681448877927
O          -1.19490199786332    0.05726306148713    1.73098782561908
H          -0.26816089030833   -0.23102597128320    1.61448798082994
H          -1.71121820507598   -0.64211925117868    1.26436308222969
O           1.53665292953778    2.16776872118745    0.66145076852148
H           1.60487531819147    1.18671235453667    0.58583617780371
H           1.79790059632045    2.39324859798542    1.55655474566846
O          -0.90004463581142    1.80089189491082   -0.02263328902832
H          -0.64448735145451    1.07863988737616   -0.74826919692384
H          -1.16389688252116    1.16356636439521    0.79700604115313
H           0.00598597823101    2.18066165246546    0.23513804859197
