    19
        -40.91058111
S           1.04558594976756   -0.97494022193892   -1.31192707431769
O          -0.07994886948329   -0.34055012565839   -2.11842675493839
O           1.98813204090674    0.03137283796640   -0.90776175841428
O           0.53177394875539   -1.82078927226992   -0.28407298311762
O           1.73867477294524   -1.87857945647659   -2.38714300839505
H           2.21456473524690   -1.28559308820342   -2.96405663183793
O          -0.45186609650241    0.78556544959991    2.93576038837270
H          -0.92083795772020    0.06026925618003    2.50884096140719
H           0.05908670472580    1.21478281806591    2.24009448290540
O           0.76622800098340    1.88360541235907    0.54923905067588
H           1.25674329652954    2.70719345845330    0.57381395362245
H           1.32960073321499    1.22829339187264    0.08891258155030
O          -1.62958698537156   -1.14708762157794    1.12208530978398
H          -0.81162624538745   -1.50139798720285    0.71960983660439
H          -2.22407070020908   -1.88917324466754    1.24392900286712
O          -1.49115666936411    0.94199627625522   -0.54206882325690
H          -0.81660577244858    1.48979349045773   -0.08865925671508
H          -0.74222681197449    0.23248126516000   -1.49118229450737
H          -1.76246407556000    0.26275736234657    0.11301300753863
