    19
        -40.91521778
S           0.86389136283796   -0.10284081109918    0.73942641525019
O           1.06384529461543    0.83716210724638   -0.32172325961659
O           1.07226494250936   -1.52958069541441    0.13198380129939
O           1.65433998790396    0.05329035132012    1.91540882306092
O          -0.61672922216330   -0.13122189126780    1.15556382806000
H          -1.17206577134675   -0.38994178577757    0.32599257797379
O          -0.52690283633479    3.03399456875457   -0.90788411685098
H           0.07961024323867    2.36527813399180   -0.55436993292323
H          -0.09153246005053    3.88125180961894   -0.80344946819009
O          -1.72187050737255   -0.88977612659098   -0.97708671722777
H          -1.40816953551258   -0.23270157886681   -1.66309900538521
H          -1.29113234440221   -1.72085549442097   -1.19333427518755
O          -0.55178045485993    0.80991957346356   -2.57313743925044
H          -0.88127344755095    1.69235922019991   -2.34639992747834
H           0.28259933857946    0.73903125117832   -2.08620106150950
O           0.87755716315246   -2.40710009401435    2.57295684954623
H          -0.01058256745698   -2.32450341463180    2.93016074828398
H           1.05790041230423   -2.12763630201056    0.91849330210694
H           1.32003039190140   -1.55612883168287    2.73669883802211
