    19
        -40.92343609
S          -1.64707405027592   -0.04153621708692    0.36203664970716
O          -1.77855171271635   -0.55389948486889   -1.00267276260632
O          -1.18750959706229   -1.06216725710541    1.27989302493961
O          -0.82980459361398    1.16058220246844    0.40837302114394
O          -3.09319163276070    0.38987955248579    0.81434133978790
H          -3.57990804738198   -0.42712414572903    0.76828533773007
O           1.63135636695938    0.83598581276312    1.34901781076716
H           1.71903691317555    0.95961154062778    2.29507411386053
H           0.68844023105893    1.01148653223685    1.13488176611287
O           1.05919031408558    1.55520196917813   -1.43510925685838
H           0.25711139973477    1.64715404157128   -0.87984386139072
H           1.79839735138034    1.63461634778725   -0.82215603448802
O           1.21178641871236   -1.64907725889818    0.41773467207324
H           1.64074333536396   -0.85244064546131    0.79443382932376
H           0.31328548345302   -1.64610245019062    0.82602780287499
O           0.52755576054009   -0.89783378723611   -1.85768325930708
H           0.91929789857599   -1.32385877111606   -0.95891262202923
H          -0.49189683023184   -0.82116604330237   -1.63691315426544
H           0.84173501111943    0.08068807198555   -1.85680840729486
