    19
        -40.91454106
S           0.92739926154194    0.61226650778432   -0.31196254782093
O           1.19761814552868   -0.17196878709197    0.96727660051287
O           1.43864850458268   -0.10541015853800   -1.43469749997327
O          -0.47517132838889    0.96490756390533   -0.38083216756005
O           1.74003528401318    1.91886676497608   -0.09088696631706
H           1.28062428003612    2.64320842803836   -0.58325837477927
O          -0.01752790863005    3.42519659497684   -1.29222337424855
H          -0.45682617165471    4.10386963550791   -0.77340679051926
H          -0.51522044242356    2.59832567702908   -1.16445258767113
O          -1.57797916207015   -2.47635831784488    0.69592437291053
H          -2.30174226675432   -2.49854768201334    0.06761598715311
H          -0.75844262510716   -2.59067793804098    0.16725400616640
O           0.65996415165179   -2.59968097985697   -0.79427170625789
H           0.93055248273824   -1.74477805534560   -1.17539684650492
H           1.42103437130588   -2.92079200810384   -0.30608168792606
O          -1.08497483857171   -0.21314120492768    1.96180501805961
H           0.31473535403072   -0.20531624358270    1.53248541255874
H          -1.36964114191861    0.37940766975655    1.25052435861069
H          -1.35308596989098   -1.11937744667973    1.66458478357116
