    19
        -40.91440008
S          -1.11438215607517    1.15381861888879    0.51292483755269
O          -0.96031980447562    0.93448987655334   -0.91884213429049
O          -2.20747911356391    0.46389873414928    1.13203520224666
O           0.17666222759863    0.93081228604235    1.19241777323695
O          -1.40239380454478    2.70883431467940    0.66573892867294
H          -1.90805115709414    2.80885124573077    1.46797744270462
O          -1.79417830584562   -1.73713249465766   -0.35792225826162
H          -2.17262651392369   -1.10112502514671    0.27266369942817
H          -1.69063299441831   -1.24030503231272   -1.17470631807741
O           0.61756460526133   -1.74657284960304    0.80011568426806
H          -0.24864986892053   -1.98621307723630    0.40297872772031
H           0.47408681410062   -0.87603057947748    1.20607931175835
O           2.27868281833293   -1.17076641995857   -1.06918534133830
H           1.64174232249886   -1.53001192902006   -0.36814080334515
H           3.16555420189236   -1.36537544805407   -0.75968876467919
O           1.50023913986212    1.19241300898793   -0.86431512017177
H           1.90852924688623    0.22134287907990   -1.03712496660417
H           0.54517610158361    1.16204285233727   -1.23389974649201
H           1.19047624085499    1.17702904902551    0.13089384567107
