    19
        -40.92217280
S          -0.90599507266392    0.91194985253086    0.50395529331874
O          -0.75416684356189    0.70949256227583   -0.94262546271897
O          -2.24057852344809    0.66834802556685    0.97091744849111
O           0.15214604975973    0.23795906053778    1.23550204422454
O          -0.61524467792562    2.46878837388193    0.73034199519970
H          -1.47758783411936    2.87202289279344    0.76600279526223
O          -1.92818922744742   -1.74908593180960   -0.16932416922643
H          -2.16102110309231   -1.52094660178717   -1.07247688404034
H          -2.16724733297869   -0.97082103359902    0.36444064595301
O           0.67166107078359   -2.20243703244119    0.25269080059430
H          -0.28443445220753   -2.32588686037812    0.06262869199233
H           0.66891581496300   -1.53828753089277    0.96459897206133
O           2.35040112349107    1.17442344152145    0.17473397627148
H           2.21939134739655    2.10824409660216   -0.00081462757090
H           1.61063966452262    0.90186317925138    0.76497534611838
O           1.33281266501562   -0.51183402349620   -1.46253378452905
H           1.15382849624571   -1.34473156999516   -0.81610538518523
H           0.41805755171351    0.00969719348909   -1.37887639614681
H           1.95661128287664    0.10124191592306   -0.94803128990201
