    19
        -40.91145385
S          -0.12529152683326    0.62980986411506   -1.46405603965753
O          -1.27233907056608   -0.29662788100168   -1.50247232005558
O          -0.44329045644345    1.80713729334478   -0.68152275471253
O           1.07849002919003   -0.05208021184910   -1.05168015038701
O           0.09370848812834    1.10933002344738   -2.94549177653887
H          -0.59326721637827    1.75611686046921   -3.07591054270573
O           2.19294665658896    0.93233488294974    1.35396716448638
H           1.98671457527532    0.68193431987563    0.44511335996235
H           1.35192548382172    0.96133941100106    1.81763414836063
O          -0.79109367613851    0.94303973695022    1.72033684502289
H          -1.40265042572653    1.51054569397771    2.19405631606237
H          -0.62185936895744    1.37864606408476    0.84031914337541
O           0.90931861953362   -2.28057690829905    0.34401005730281
H           1.17227106804248   -1.47296036673649   -0.15562267673521
H           1.03702932970516   -3.02387875380256   -0.24862505234558
O          -1.39631179521904   -1.32432557204653    0.72107072456669
H          -1.21622124681891   -0.49009702349085    1.28003089268331
H          -1.45589102379932   -0.92525046116824   -0.28483316207128
H          -0.50418845339446   -1.84443697182860    0.69367581338114
