    19
        -40.91521793
S          -0.14285283024118   -0.17328051610777    1.11870732614452
O          -0.68466042065484   -1.18184553306439    0.25914345840338
O          -1.12819239910236    1.04127971728817    1.07642261444160
O           0.13404393717502   -0.53750821555141    2.46879063416136
O           1.13940760869485    0.41662659622167    0.50705588041230
H           0.89616631473872    0.80868090767211   -0.41500071638781
O           0.26200010395875    1.39430473008755   -1.64238192801370
H          -0.43692960750459    1.99440932095878   -1.36971581038527
H          -0.19635410370803    0.62761822830315   -2.09255623321346
O           0.71757216752097   -2.67913676082906   -1.60929094439828
H           0.32051016812718   -2.25702716386542   -0.83202086504121
H           0.75406985220443   -3.61833709249920   -1.42257696928581
O          -1.05412359105067   -0.70979666079154   -2.44740553320570
H          -1.33356100066882   -0.91763345878896   -1.54356587208421
H          -0.40147498782572   -1.39527114064804   -2.65445280773355
O           0.33457416641725    2.07095253203444    2.96478993583044
H           0.40251788539244    1.12852889541466    3.19689196478872
H           1.20522246221169    2.33886428800062    2.65936148588167
H          -0.78793572566939    1.64857133617242    1.77780436968212
