    19
        -40.91836428
S          -1.05223402419268   -0.33951860346413   -0.40810024217907
O          -0.73852586863034    1.03193173024667   -0.07282810227481
O          -0.37477926179814   -0.86325260739320   -1.54521221782789
O          -0.80968442835651   -1.19896031682969    0.84892034905146
O          -2.57535715241019   -0.48132462271784   -0.59699948380317
H          -2.97041552390927   -0.00621023055751    0.17706055680292
O           2.00744753493541    0.08789272132771   -2.47699779931562
H           1.79755390627442    0.60776428604173   -3.25474839274274
H           1.19847831439350   -0.40113948676273   -2.24860363455845
O          -2.85261187932775    0.93222360854621    1.56548424244622
H          -2.06257487509506    1.34637164577099    1.17860051906052
H          -2.55566848705846    0.40465693593677    2.31140281236703
O           1.99614269480368    1.00147618957667    0.06458716088769
H           2.23292874168497    0.76275024701059   -0.85417318971820
H           1.05968317831297    1.25427156554710    0.02615063993952
O           1.66718987442937   -1.26194144577764    1.26447217520702
H           1.89835602638586   -1.15862797865222    2.19051856053412
H           0.20370959832159   -1.31298812544151    1.02559665462096
H           1.93036163095652   -0.40537552286523    0.80486937174336
