    19
        -40.91905000
S          -0.24288751049862    0.25565965894491    1.11335416225444
O           0.99899187264415   -0.50404514854668    0.60852352854523
O          -0.26919865507478    1.57166489486004    0.56447013916957
O          -1.39301162975171   -0.57378320987684    0.85461199587501
O          -0.01751054728709    0.34028815763649    2.64346463750919
H          -0.06121676210482   -0.59636939942670    2.95890515967952
O          -0.27135260971562   -2.25253467430170    2.64321218599554
H           0.49253791247798   -2.58379192009107    2.16316388462795
H          -0.93777842063124   -2.02434274904420    1.97551759645721
O           0.47765615001168    0.34591912621878   -2.89435473919740
H          -0.42033713992022    0.42908502749833   -2.50159602274193
H           0.54499279236156   -0.54872935762471   -3.23108733991041
O          -1.85538576502125    0.56083342969643   -1.57877200291946
H          -1.84338847392444    1.46602482496556   -1.25539086503850
H          -1.85372068690922    0.01007645883340   -0.77963114373642
O           2.02496926280428    1.16856700130640   -0.92403472560518
H           1.49921971959140    1.89970559553196   -0.57482415399843
H           1.55056623177465    0.13331016806860   -0.01769844012553
H           1.57685425927772    0.90246211542967   -1.76783383661747
