    19
        -40.92174069
S           0.56519736227961   -0.50400463693962    0.47841061309436
O           1.05262921904777    0.10382895398738   -0.82390425846984
O           0.43294916285194    0.52339774468602    1.48971771622178
O          -0.61921601627216   -1.28143263081552    0.25991400244254
O           1.71520201613011   -1.45075462060298    0.88521688554865
H           2.41488704408934   -0.87094489061251    1.28327634910411
O           3.01157780385231    0.45189553042923    2.08494148704496
H           3.18213356498273    0.34423932005305    3.02408767094379
H           2.11776866571252    0.83262135485602    2.00077314332148
O          -1.92975549451934    1.35616753644312    0.46447502695010
H          -2.45216256521988    0.55715450766454    0.57324672428940
H          -1.12646277765424    1.22161777282197    0.99378023529943
O          -1.91258981471869   -1.31637131531430   -2.10029382064404
H          -1.54174023044818   -1.44250275509986   -1.20628053357289
H          -1.55880799742961   -2.02274039769910   -2.64331942484261
O          -0.88238796595107    1.13164858295639   -1.96569498464760
H          -1.35910200651914    0.31765007881924   -2.24935827948906
H          -1.37112602651409    1.44743748327454   -1.16930264040241
H           0.26100603630295    0.60109238108980   -1.37968589219307
