    19
        -40.92218929
S          -0.92606524926177   -0.15165192035403   -0.67753086684483
O           0.32421530209552   -0.13530745601889   -1.42999091354765
O          -0.87122802332874   -1.12662101587909    0.40693619076104
O          -1.26638292897663    1.18135837982970   -0.18020155293636
O          -2.07262872089620   -0.56399680070727   -1.64630347205147
H          -1.78709595734680   -1.45403589009128   -1.94000383604455
O           2.15554370715125    1.39320001478917   -0.41385075909780
H           1.53940014421683    0.74439293521025   -0.84928523633650
H           2.35691134524043    2.05542418478581   -1.07853032056661
O          -0.54651535610172   -2.70198928897073   -1.80486171405130
H           0.16375483405375   -2.07965647499569   -2.00993818574242
H          -0.59801144201371   -2.70808928598901   -0.83986789954750
O           0.23310915203792   -0.22727481106279    2.57379199770477
H          -0.15540020990420   -0.67677100848080    1.77560714547821
H          -0.42764365366940   -0.29754676162312    3.26613268103934
O           0.47536833083953    1.98137577674151    1.37549154543736
H          -0.34325917863239    1.76704475987938    0.73211522890918
H           0.46644337361727    1.15752407514995    2.00179767907052
H           1.27948452088172    1.84262058768001    0.73849227834575
