    19
        -40.92246919
S           0.78350834995130   -0.33976123722073   -0.64409712744519
O           1.39267878886268   -0.32000836155403    0.65134642179517
O           0.03531495639337   -1.53613241462013   -0.95264959971908
O          -0.12199613988390    0.87475306966800   -0.83220472311343
O           1.86915533430172   -0.12088678351148   -1.72017687869739
H           1.37817725842841   -0.20960055606570   -2.57532656737899
O          -1.26356060869089   -1.50903602193401    1.41432648404018
H          -0.55057688049568   -1.67163255720568    2.03709648588323
H          -0.90297238913084   -1.71862203988742    0.53573709583969
O          -0.03948146053204   -0.51661127107003   -3.44099288210973
H          -0.63686588014858    0.23008540674410   -3.34171662949622
H          -0.29384621898044   -1.16552866367615   -2.76473489695924
O           0.71776117371724    1.40021203667894    2.60481458960891
H           1.10042451128502    0.73295970142621    2.00399480462983
H           1.30800807752668    2.15532016856064    2.58474341409747
O          -1.50713019256617    1.11885291579027    1.19109295999054
H          -0.78093050492432    1.04709800605500    0.03077546385597
H          -1.66309139372079    0.15938404946767    1.36778613101112
H          -0.82457677139443    1.38915455235207    1.85018547416293
