    19
        -40.91930887
S          -0.76149453097827    0.25408961054264   -0.36078158048941
O          -0.30490737154510    0.12800749287643    1.09841820112022
O          -0.07905973415892    1.38468269074021   -0.94161473447981
O          -0.62238369839584   -0.99800998629560   -1.02744992299641
O          -2.27076776321776    0.59552103729311   -0.25912576969959
H          -2.33225716353341    1.56730039865452   -0.07156690597517
O           1.74098052418978   -2.32548170558613   -0.53655229317272
H           2.21931993237951   -1.48074067077539   -0.44666302975852
H           0.98937599729863   -2.11577234287958   -1.10812363319264
O           2.31932714260546    0.31819095920795   -0.16376547732107
H           1.59589684497883    0.80134875202780   -0.58941749867446
H           2.29159883413284    0.55693691184058    0.76562466710358
O          -1.85198845972757    3.15555826082727   -0.07983688692024
H          -0.99323008419344    2.82701899687412   -0.40356077506004
H          -2.22241835686856    3.70335974273861   -0.77651267500236
O           0.15594625892592   -2.29692348840094    1.52242238855149
H           0.86754502581418   -2.42416104832215    0.82411861991371
H          -0.13221674401132   -0.87050506255079    1.35342138398483
H          -0.60926666355098   -2.78042054886585    1.20096593215369
