    19
        -40.92246911
S          -0.15522982928707   -0.54732134434552    0.90673813387546
O          -0.52823285681184   -0.96322992758479   -0.51365758974105
O           1.27062992078022   -0.69801464878902    1.08153373882888
O          -0.67045824314391    0.75498786722469    1.20377121271826
O          -0.89231366643818   -1.59454786999626    1.76985750146805
H          -0.43958703796813   -2.44672581780604    1.54921382192528
O           1.82441425658587    1.57181494585787   -0.27111490983563
H           1.84822684468209    0.75485054912486    0.25610009747253
H           1.45937397359313    2.24729710189594    0.30600323141114
O          -1.78623178874981    2.38332431980938   -0.62105657499317
H          -1.44214690269809    1.91222305222410    0.16155939748977
H          -2.73787042745186    2.26821190867120   -0.61131405285303
O           0.75625507940510   -3.31553508690482    0.72902811525082
H           1.35685966840536   -2.55979599525048    0.83442876240150
H           0.52767658875278   -3.35442096874314   -0.20393610195335
O          -0.06215975044453    0.93276406588827   -2.01601135071838
H          -0.75651871655477    1.57181816912231   -1.72732345440397
H           0.76807009301147    1.24930754168580   -1.58387273548135
H          -0.34075719566292   -0.16700786207800   -1.24994723284996
