    19
        -40.91907725
S           1.31652368236590   -1.00795055723608   -0.17808547807483
O           1.45697186661287    0.18003309871698    0.63212543051838
O           1.14974694085877   -2.22764165745691    0.57717701823205
O           0.24283119501468   -0.83618502478501   -1.17974849781880
O           2.64916959115273   -1.15673018292877   -1.01939662365058
H           2.69428248875076   -2.07973391099438   -1.25504731252016
O           0.56357139299790    1.88207154507082   -1.17561377395495
H           1.06724071507013    1.51269039132588   -0.42348243793240
H           0.44170765482832    1.11375437349164   -1.74846312600655
O          -0.48747638581433   -0.98256936241858    2.20299052872854
H           0.08028304756761   -1.67147481100891    1.79015630140710
H           0.10107447269437   -0.22038088856882    2.27903327188757
O          -1.79629731588837    2.07135051719300   -0.08532309555288
H          -0.87795425904063    2.14442708197344   -0.47825389968382
H          -2.39769451335947    2.48544341371046   -0.70690203445414
O          -1.82789411755626   -0.44617343639057    0.13082351143344
H          -1.91794082734062    0.58882096506634    0.08349916398841
H          -1.02328765259695   -0.67519306051195   -0.51222140806159
H          -1.43485796626788   -0.67455850424982    1.06673245153955
