    19
        -40.92174072
S           0.14491250210836   -0.88354007138451   -0.01896048905556
O          -1.26953026892033   -0.98680961054298   -0.30979318215943
O           0.82872267742145   -0.00871771829568   -1.05351326281344
O           0.44978020598334   -0.42949935441594    1.30611692175635
O           0.79434939104786   -2.26787208066567   -0.23378511195957
H           0.34526915178149   -2.65636981094953   -1.02857722118748
O          -1.76064324342560    1.45096849498279    0.75971606566639
H          -1.48357055812691    1.29712835805511    1.66678274340968
H          -1.81672621640459    0.57318203855509    0.34738207185697
O           1.77891292837935    1.86210397014732    1.78168807943661
H           1.32951928744352    0.99571741279494    1.77723629954351
H           2.71962504151172    1.68022967342348    1.81218599799613
O          -0.89383023867977   -2.89812763885200   -2.10256575913004
H          -1.33818236961807   -2.14629180551599   -1.66877354283242
H          -1.44524222792402   -3.67093604429325   -1.95636302004976
O           0.42334164998080    2.35327662421942   -0.45284274545245
H           1.00478585329525    2.42485596991467    0.33911986478679
H           0.67741898441455    1.05337480786698   -0.87459840048291
H          -0.48891257044533    2.25732677483200   -0.09045529923972
