    19
        -40.92246926
S          -0.42878037173467    0.94060150267999    0.27925053681915
O          -1.73607257193910    0.48473078743373   -0.13230052045306
O           0.04154606740964    0.40107219782995    1.51910437598942
O           0.56957115253448    0.66381472646360   -0.84207307400476
O          -0.42488851356218    2.48257954864047    0.36140826755008
H          -0.81609492550042    2.76835045670482   -0.50197380094045
O          -1.51496551817467    2.41039695080198   -1.99822613341081
H          -1.95892363308066    1.64815073427385   -1.59223978054948
H          -0.83829103027056    2.05385759009178   -2.58066291544740
O           2.17900521223464   -1.21498939695699    1.74162800742805
H           1.40940241820431   -0.62290220804888    1.84081495776515
H           2.95378075916310   -0.69308782538794    1.95687752417503
O          -1.14861617688090   -2.10610624882565    0.34814343039361
H          -1.04220119981369   -2.11602861698563    1.30264557230491
H          -1.56888092048218   -1.25515037211329    0.13559287572302
O           1.25187884840396   -1.69935839987551   -0.69408336354920
H           0.37721977715453   -2.07978174692258   -0.43642972134820
H           0.91772404994476   -0.37880959481015   -0.84821985376655
H           1.77758657647617   -1.68734008476205    0.14074361524710
