    19
        -40.91814255
S          -1.66166430365275   -0.30956204074419   -0.50509969441853
O          -0.59964913286591   -0.68466703088423   -1.44800231291060
O          -2.24206584890266   -1.43617970473881    0.16644942388962
O          -1.20759550242422    0.76753374153713    0.36853646495565
O          -2.81090616411477    0.33518636658596   -1.39583019336254
H          -3.39115409675195   -0.40110236312242   -1.56403451815789
O          -0.18307141921809   -1.16054733899169    1.90159482560687
H          -0.51761721699469   -0.28513904650769    1.64559917572076
H          -0.84176687533667   -1.75807195967552    1.52143873778171
O           2.26475770302249   -1.09010580762101    0.96782367306478
H           1.35876426544263   -1.24019990850444    1.34992008541590
H           2.75840767665635   -0.60383026980796    1.63131537930448
O           0.76559425234583    2.34079122883531   -0.22051269185940
H          -0.03845956038005    1.84601832371347    0.08577873735432
H           0.45098855484581    3.01829395048046   -0.82184714635572
O           1.68920108286762    0.16587612847820   -1.15847885309790
H           0.71763191489577   -0.24358928917574   -1.36083492062576
H           1.46990423246714    1.10855107359333   -0.82581299387422
H           2.01870045809837   -0.36925605344581   -0.33800315843312
