    19
        -40.92217272
S           1.06155260008687   -0.63718760736206   -0.61265462228383
O           0.49654709657931   -1.13809709987301    0.64685332153263
O           1.01905716636128   -1.60243890989324   -1.67341808501980
O           0.53126844691067    0.67644050922595   -0.93246728002671
O           2.60619229573939   -0.37353378216474   -0.29076624213022
H           3.05423271066967   -1.15297562873578   -0.60595073854784
O          -1.61942499639456   -1.68813763370488   -1.15454410129284
H          -0.71997132828351   -1.70961630086621   -1.52654404503788
H          -1.61001327313139   -2.31441659119664   -0.42674229253121
O          -2.10409352085916    0.84691920159086   -0.46501259995658
H          -2.21350289146292   -0.08365879545187   -0.76153316494466
H          -1.28433070354212    1.12379834895020   -0.91129478742543
O           1.03778755049597    2.10278498520121    1.19893874142067
H           0.96676020322508    1.72428641724772    0.29249458879719
H           1.90491667941200    1.85265936811378    1.52380890823286
O          -0.93950787601512    0.56274990771684    1.72557946371379
H          -0.25578794109176    1.31255209671270    1.71771139802215
H          -1.57188114350492    0.74446081503346    0.88214694167775
H          -0.35980107522215   -0.24658928058072    1.37339457577196
