    19
        -40.90903595
S          -0.83387842596306    1.50580542229487    1.13076815774995
O           0.42632417971403    2.26690123066065    1.50497158541431
O          -1.98548152078485    2.06574625723911    1.73646989609369
O          -0.84910617740469    1.25843814092343   -0.28298570390110
O          -0.59965082025242    0.07499691083316    1.81274577104153
H          -1.02306748724946    0.11568093837403    2.66730450841572
O          -1.87676843399857   -1.02656363019937   -1.25818336412578
H          -1.52737566997624   -0.19293284224134   -0.89364437749011
H          -2.63846191997069   -0.79201740332670   -1.79045112319246
O           1.68215999595813   -1.07793358233168    0.46599385628779
H           0.93929148440201   -0.98920398284332    1.07173690104750
H           1.35711053084022   -1.64903949687081   -0.26199487983938
O           0.45206957810429   -2.41608474106839   -1.52499766046173
H          -0.44361988327343   -2.04438565566906   -1.42139669514345
H           0.67960289933660   -2.33142191325067   -2.45205860368307
O           1.89794128598193    1.39999802373421   -0.30079189101958
H           1.15123594720711    1.97721699078472    0.79698907998540
H           1.98587245279986    0.44036028981586   -0.02816252778600
H           1.20580200454128    1.41443905314653   -0.97231292939517
