    19
        -40.92052658
S          -0.40734854605132   -0.59435000629869    0.43676174129279
O           0.24214927508135    0.53274474805517    1.05839015529439
O          -0.29441387116180   -0.60927190433928   -1.00051740148190
O           0.14797176266279   -1.88849806847515    1.03822859241727
O          -1.88774697533335   -0.64917134031945    0.82480205565731
H          -2.40263949904714   -0.13297620736336    0.10040775257276
O          -1.16669562244647    2.58842751609167    0.04647628224937
H          -1.44158847773827    3.14607194227851    0.77719921745262
H          -0.53352465195131    1.94348919826585    0.41466711845962
O           2.36514610834607   -0.83712089925706   -1.33022416283304
H           1.40344522569756   -0.67188957215235   -1.34577019651304
H           2.52606457140201   -1.56042943183292   -1.93965897590832
O          -2.74026269986801    0.76157829280594   -1.08754020435536
H          -2.13682713876767    0.37319819275676   -1.73192514003372
H          -2.30397380965357    1.59179697575438   -0.78819121441536
O           2.52360571807557   -1.08049337735206    1.31838205105372
H           1.13746372483766   -1.71376634005541    1.25334276669373
H           2.70746672893457   -1.00301178448367    0.35428006371716
H           2.26170816697754   -0.19632791408044    1.60088950867828
