    19
        -40.92246913
S           0.24280792382443    0.94946616007906   -0.43025611889601
O          -0.24406972021788    0.51072367295972   -1.71746755318177
O          -0.77207939208239    1.26059583693160    0.53039339050221
O           1.20339642392226   -0.10070239099717    0.12175166890249
O           1.15853377191162    2.17844476362260   -0.61889243007987
H           1.78487462082434    1.90103627935897   -1.33363500523418
O          -1.15641856522260   -0.10585344607047    2.81374052778114
H          -1.13438511637958    0.50753115614601    2.05477378539421
H          -0.69242381025923    0.33063154334752    3.53011093096537
O           2.32532705338553    0.77437074886862   -2.47047556741069
H           1.40419307251386    0.50545896789381   -2.62002791899769
H           2.75179096651951    0.04483969012221   -2.01199680176457
O          -1.98381632631048   -1.24163006689291   -0.62573718983410
H          -2.60477130639762   -0.65955952417552   -0.18065235820769
H          -1.45843234662775   -0.67175620068472   -1.21319349449803
O          -0.13220949750918   -1.89774393358742    1.15040501838000
H          -0.86956372669456   -1.91370598880600    0.49292818060946
H           0.68024420493579   -0.94489907653982    0.59384089047008
H          -0.50299824014651   -1.42724821157151    1.93439002509472
