    19
        -40.91335392
S          -1.42237193906433   -0.37380787708001   -1.20331573500157
O          -0.44035374046534   -1.36787923906009   -1.51577729923311
O          -2.09424259812656   -0.70849923987141    0.14135208766029
O          -1.00275224352312    0.98597782096935   -1.23695714366349
O          -2.62817387032354   -0.55305114392871   -2.18607557467167
H          -2.73867592769874   -1.49447932970029   -2.29922238659705
O           1.62024250611343   -1.43360446327188    0.28546731771473
H           0.98885739620513   -1.54657933384264   -0.44322382196429
H           1.08878527267621   -1.28205349626904    1.07527957028231
O           0.39894983584998    1.97861294784839    0.88357739841265
H          -0.14612145311703    1.93250635084352    0.08222778895494
H           1.31509788801710    1.78168402296981    0.57490961088628
O           2.63111130688640    1.00884052932755   -0.20002554926052
H           2.62204694822247    1.08698620200151   -1.15531533928657
H           2.42596157729252    0.06791747322310   -0.00148579910203
O          -0.38514919200222   -0.20501789608590    1.92334364794627
H          -1.42692685167438   -0.53838984802961    0.90355673783496
H          -0.03096204819011    0.69845751776391    1.58761962475505
H          -0.77532285709697   -0.03762098782365    2.78406486435510
