    19
        -40.92267737
S          -0.25887608274320   -0.75281146987909    0.70581697434663
O           0.65850664060718   -1.38823753205744   -0.21260014971437
O           0.41524973568725    0.01431166859427    1.74289811880309
O          -1.20838167521973    0.12139580551734   -0.02685562261068
O          -1.11900411990646   -1.86055656890470    1.37529272669252
H          -1.68265966711051   -1.35400620958756    2.00134163571631
O           2.03450348763612    1.25367262372657    0.09613302279139
H           1.51199038394346    0.87982303330638    0.84535918992138
H           2.63517820161827    0.55192060375374   -0.16973492647530
O          -2.11039053407788    0.19857724782613    2.66298585674796
H          -2.43919218540690    0.63453432324115    1.87000374614742
H          -1.16344568746574    0.40832616121088    2.70027484766701
O           0.15799263252659    1.40939979292687   -1.60856749073022
H           0.97639454433339    1.51772680954511   -0.99070140901261
H          -0.54850262028740    0.92428270153640   -0.94151124128134
O           0.78611581876887   -0.77377387491594   -2.74486163007184
H           0.11990223994828   -1.27036196548184   -3.22404747120709
H           0.41232369829006    0.64729998329307   -2.24554344663987
H           0.82229517885199   -1.16152314365085   -1.83568273108905
