    19
        -40.92079109
S           1.43324365394392    0.38987479024178    0.02610710899431
O           1.93982778731322    0.42716177640803   -1.32149127070781
O           0.50643595557263    1.48776383353931    0.30866192683156
O           0.86109723362378   -0.89178827674735    0.41494739739412
O           2.66516936658504    0.60106118519734    0.99698968131079
H           3.09247097237797    1.37584914152838    0.64537169172000
O          -1.47288916676879   -1.03215257369274   -0.86559335180330
H          -1.23580277556779   -0.54069011385037   -1.68673059499143
H          -0.60637346068566   -1.27182413261503   -0.47898148124898
O          -0.61857480872957   -0.85163939886561    2.57998898969307
H          -0.92207877849553   -1.74507096052084    2.75298996186813
H           0.08911868268067   -0.92239445508045    1.89654005050753
O          -0.28448188484412    0.37895637471000   -2.74873057426469
H           0.56691409437437    0.48313820822117   -2.27122353778369
H          -0.05965460905976    0.08889466621536   -3.63484679860000
O          -1.76504216149668    0.70268261087942    0.90015374449074
H          -0.85655267118919    1.18038359876944    0.65952658295261
H          -1.82877179321319   -0.01422392954006    0.11328698191702
H          -1.50405563644751    0.15401765515931    1.71303347169475
