    19
        -40.92343666
S          -1.51531774839159   -0.70746164341903   -0.22045758773050
O          -0.77753471355605   -1.66935047868756   -1.04080115295537
O          -1.34746119842654   -0.96373480709366    1.19411257318995
O          -1.19466876789180    0.66448610597230   -0.58104963226193
O          -3.03900250341607   -0.91027237112763   -0.56574949551760
H          -3.18777644040577   -1.82056168817290   -0.33001246780291
O           0.40103033003360    1.94513084827580    1.11069540998444
H          -0.05253819480780    2.42516355589420    1.80489208163912
H          -0.29989131588115    1.54752350619830    0.54825874244141
O           1.20487566766559   -0.56894789412978    1.61046962317969
H           0.26214385117130   -0.85941983950181    1.63959741379641
H           1.14617626993210    0.40933025563818    1.60447525115818
O           1.19437026231424    1.24078324561550   -1.62196264604735
H           0.22977903731120    1.12128154396657   -1.49796777926689
H           1.45468324019001    1.88451530762993   -0.95387316803706
O           1.63100984021138   -1.12189203212392   -0.78174205631425
H           1.59553356179721   -0.94684043197153    0.27228449673648
H           0.66786189002229   -1.47999840949864   -0.97666422215404
H           1.62672694213690   -0.18973475345994   -1.21450535403596
