    19
        -40.91286420
S           0.42400208508861    0.13642529455427    0.38412206345064
O          -0.55897621518879   -0.54296570076294   -0.42254231454538
O           0.50060678849852   -0.52125843620302    1.77687306046733
O           1.72846211317551    0.23739689298266   -0.19284502807636
O          -0.09843890702381    1.54636069263255    0.71769809476267
H          -1.11773280680463    1.45743604528064    0.74643792352766
O          -1.58568034838828    3.01306269548991   -1.39512396503578
H          -0.73000074332774    2.81648741368433   -0.99932489198681
H          -1.69628257582211    3.96575056451835   -1.36934644424264
O           1.45421562940742   -2.21759699123913   -1.29506366425089
H           1.86956593711768   -1.34754695145434   -1.18915650676753
H           0.51287744804553   -2.01775236994675   -1.37278697779417
O          -2.55590963372693    1.10503618327738    0.32436617686775
H          -2.26017064335180    0.26734801897304   -0.06738774377914
H          -2.61404569083618    1.74101594214100   -0.40976083966876
O           1.64478650858974   -2.75400588547435    1.28226635409930
H           0.91392010459064   -1.44087768245116    1.68513424106628
H           1.59135025450889   -2.74217485888964    0.29194690663661
H           2.57745067541661   -2.70214085709659    1.50449355526552
