    19
        -40.91790590
S           0.05883968873998   -0.74154674199732   -0.70793220822107
O          -0.84314382495102    0.36998717027038   -0.54600242240190
O           1.34514559002288   -0.39715080946624   -1.24174401378592
O           0.21546251101006   -1.49771056418950    0.59831654803593
O          -0.61838771066964   -1.80603115589331   -1.62639703947425
H          -0.70884634725206   -1.35853891880504   -2.49369566010716
O           2.12095257829721    0.71651261371205    1.12734086456381
H           2.02781448761089    0.41053295087066    0.21184143254109
H           2.39344612616079   -0.04875247205842    1.63801904295491
O          -0.32205107938528    1.75621060735794    1.75431349676239
H          -0.62212853784410    1.62642401443797    0.84200763267147
H           0.63907781765882    1.59611820316812    1.71672354800544
O          -0.41486947623519    0.18730854435505   -3.32372766469562
H          -0.85536634381718    0.78350172671113   -2.70804188487597
H           0.52899834528731    0.26888881736598   -3.14466316665683
O          -1.32398537211158   -0.55788048406987    2.32055095777663
H          -2.20526136223197   -0.51747928931911    1.94020829749078
H          -0.45123526391194   -1.17368341482831    1.35415487023190
H          -0.96446183595478    0.38328922355239    2.28872739023869
