    19
        -40.91793079
S          -0.52714759486896   -1.30690004160182    1.04874932651149
O          -0.64197342205624   -0.91130072419945    2.43373775585338
O          -1.37475186845885   -0.54699349235995    0.15329068786364
O           0.87121896304491   -1.29820437007259    0.58953978292859
O          -1.00181685977225   -2.81165550063940    0.94519389647912
H          -0.55639703820232   -3.25167083160273    1.66425134868077
O          -0.58418419596608    1.60467604852786    1.70511303542884
H          -1.26868289041169    1.47830294954524    1.03750601538691
H          -0.62330843982859    0.77629038018997    2.23491751458685
O           1.17933426052230    1.47502373777009   -1.99877481423914
H           0.46416137802362    0.80849313348755   -2.19138754310630
H           1.93854379187794    1.20874424384082   -2.52130898339129
O          -0.65385640666696   -0.35581346113570   -2.34990150341828
H          -0.91659891903248   -0.52953332025944   -1.41466083088751
H          -1.46713516423437   -0.15167623703387   -2.81542422873283
O           1.56876279001631    1.05792837700606    0.47516689883099
H           0.76883569526838    1.44729033134376    0.99628931270946
H           1.38024189339544    0.00408418851032    0.53052275190966
H           1.44475403736886    1.30291458870117   -0.52282042343198
