    19
        -40.91790582
S          -0.06785825283304    1.02363267956941    0.02079225713587
O           0.16228073558468    0.09041975286963   -1.05221058882925
O          -1.43368395673286    1.12128922371464    0.44849522119836
O           0.83327438158600    0.71345545143858    1.20175890776683
O           0.44128434099769    2.43084896773670   -0.42206584093290
H          -0.14065728996513    2.67753197494453   -1.17105560863043
O          -1.29325070705647   -1.29324102090153    1.71622335258149
H          -1.55374448321515   -0.45351055483173    1.30716021813339
H          -0.88571499667520   -1.06655013640565    2.55484740756517
O           0.33363386903387   -2.47902550256863   -0.12554337601875
H          -0.31073709479400   -2.33686344073200    0.59238895180605
H           0.14105943332371   -1.77447995675665   -0.76247531474640
O          -1.48598679169226    2.07965338100188   -2.17099190330560
H          -2.12085469748695    1.89948567806220   -1.46816313885786
H          -1.12255078743711    1.22471948266051   -2.42718420585485
O           2.41044688408513   -1.12538240382842    0.60795038923754
H           2.82993178619083   -0.89696650394574   -0.22560245174706
H           1.55942173040244   -0.02691133847060    0.99121767346116
H           1.70370587672306   -1.80810571354464    0.38445806003172
