    19
        -40.90629574
S           0.51471138335628   -0.82642600548840   -1.56761820874543
O           1.12146996461474   -1.10906087092602   -2.81890433762228
O          -0.30474147590360   -1.81307805849411   -0.94017113139777
O           1.54034242275396   -0.28778875605672   -0.58160984037228
O          -0.42224863438357    0.46143703389234   -1.80598467260979
H          -0.15562715314305    0.77546734255545   -2.66570489041597
O           2.48417809733835    1.94431917367482    1.05329060567105
H           3.35959900638745    1.91803900985690    1.44383618644655
H           2.51285263381134    1.39270441880644    0.26284720274491
O          -1.82273925511983    0.86835026341686    0.67901106028999
H          -2.30812817262277    0.01316953268642    0.66750034885626
H          -1.59563581122043    1.03642660301469   -0.24148247895640
O          -2.63961750038711   -1.65725313775854    0.39280355410907
H          -1.85639522275054   -1.81874459961206   -0.16580863984578
H          -2.56035498807937   -2.25665484105662    1.13719082618919
O           0.49158564075785    0.14863387237224    1.60130726064484
H           1.01248244360049    0.94763909110448    1.79403020935869
H          -0.43352097538632    0.45884348610895    1.35830627721474
H           1.06178759639527   -0.19602354803961    0.39716067843548
