    19
        -40.92071432
S          -0.08852594247127    0.39856398864350   -1.42416253639393
O          -0.40609748287025   -0.94298912513836   -0.89589401492760
O          -1.27968760122198    1.10565673394730   -1.83487977228357
O           0.73745606878090    1.12820183094104   -0.48993826292645
O           0.76853350044302    0.15195900861255   -2.72846818324887
H           0.11676905434511    0.08402897179223   -3.42042986340094
O           1.29109222965613    0.01551126357936    1.82516422438376
H           1.32126233894214    0.59087540218919    1.02619510890351
H           1.66679218018015   -0.83392215043723    1.51070075454747
O          -1.77758268849159    1.91860306143630    0.60332629418733
H          -1.02858075947362    2.50530538225399    0.74379727362577
H          -1.76029080205968    1.70803307099825   -0.36019781439926
O           1.65882905809014   -2.15000386207461    0.31792901155079
H           0.96797478961902   -1.77564361813854   -0.26422703020270
H           1.48496209496869   -3.09034816082764    0.38028091669210
O          -1.12248133098275   -0.38491406082270    1.45163123247218
H          -0.08883232093211   -0.22525010727584    1.78928179878787
H          -1.50013736989354    0.55413822207440    1.26073052107070
H          -0.96145501662824   -0.75780585174650    0.50916034155872
