    19
        -40.91237541
S           1.21717032881075    0.67736295647182   -1.01252863005678
O           0.38053613034759    1.91871371162951   -1.30788806859432
O           1.74394332740611    0.72410143015573    0.31865434418944
O           0.52936657355966   -0.52031333085404   -1.37773965463857
O           2.40847985452553    0.86813151092463   -2.01586353597772
H           2.95728131867393    1.56386189568175   -1.66016890764118
O           1.40455388410337   -1.89520531534799    0.93655537588058
H           1.18030783853387   -2.10816975805884    0.02554488289154
H           1.65566258628723   -0.95750561883452    0.91796630546682
O          -1.97472013740756   -0.68119980986008   -0.23372980726257
H          -1.19613974482022   -0.83690926003088   -0.78988981326670
H          -1.77463914075639   -1.11751938957045    0.62697276636466
O          -1.02584691864182   -1.65283672485156    2.06650614741367
H          -0.12175686615844   -1.87742946570781    1.75405596217969
H          -0.91450340440857   -1.00060691196695    2.76002193489211
O          -1.68910476895382    1.83518719139203    0.06990319197978
H          -2.40537174034053    2.28469820632174   -0.38552150605429
H          -1.89358802627459    0.83877496768959    0.01159867171895
H          -0.48163109448658    1.93686370479771   -0.70444965947877
