    19
        -40.91370587
S           0.67828715788857   -0.60685652553467   -0.56255163232960
O          -0.27163925875626    0.30935835447643   -1.38713727788804
O           1.28595023692576    0.18068986686957    0.46926549618795
O           0.00024501208061   -1.78470918281789   -0.13027226115940
O           1.72429316253329   -0.99802129588030   -1.62998707492985
H           2.02955978784340   -0.14911195108759   -2.02934628933947
O           1.86309474196247    1.36850766288680   -2.72647481960851
H           0.95966242394339    1.41573763781112   -2.38263239629392
H           1.80446610360120    1.34696867971121   -3.68522704579220
O          -0.92909496251794   -2.05923522857869    2.40933615114092
H          -0.70370253437565   -2.08832432957498    1.46259721645383
H          -0.28597535376291   -2.61358993411201    2.85485550104711
O          -0.66016969521602    0.62527344556047    2.30205071761151
H           0.19247817691880    0.57389445114812    1.83618457089802
H          -0.87079873554337   -0.29830217236556    2.54850920872161
O          -2.03132413718520    1.13015147012403    0.19155091230351
H          -1.60090221554976    0.93734323313136    1.08847378381795
H          -2.13215942261760    2.08384709719384    0.14448166195222
H          -1.05227047814171    0.62637874106461   -0.77367642283095
