    19
        -40.92135403
S          -0.82921173167803   -0.81866863938827    1.03813498198160
O           0.27793548287571   -0.43306292160974    1.91409114727484
O          -1.79088603586031    0.24971968532619    0.87737884236060
O          -0.34763176346489   -1.35208693938544   -0.22638703387664
O          -1.57000126906301   -2.01136603753521    1.75843438298868
H          -1.94771738595579   -1.59366525403165    2.52628589487456
O          -0.93942024477143    0.27632785201470   -2.28485079810935
H          -0.75496887819821   -0.42618001031920   -1.63124634553511
H          -1.87439818484945    0.21435248727374   -2.48796167034480
O           2.17255198855346   -0.81423697134732   -0.82338281643998
H           1.24992117736399   -1.13663969053847   -0.70692112834444
H           2.74628436156794   -1.48690224521001   -0.45197200071970
O          -0.42698318252030    2.07391720873779   -0.41672603316751
H          -1.06315776569496    1.58246863395664    0.15495884507025
H          -0.51653252423164    1.62035075206119   -1.28886273170948
O           1.64084126565508    1.21195790974904    0.63460549701909
H           0.80686658678923    1.71003235004300    0.13303200225813
H           1.14649348068354    0.59534601028971    1.30881670776233
H           2.02001460279753    0.53833581991357   -0.02742776334669
