    19
        -40.92267753
S          -0.04187400711959    0.01443716909925   -1.06410530920479
O          -1.10154750817099   -0.48886677862634   -0.15486039318246
O           0.36569562258084    1.34687575974285   -0.68046846894616
O           1.06448770341429   -0.93042572651210   -1.09987607619334
O          -0.68539153245050    0.09285153689921   -2.47652739551228
H          -0.89948309946016   -0.84614226117402   -2.67349264103953
O           2.03061013066979   -0.24608153660578    1.23854983542141
H           2.40160177015294    0.62315563399044    1.06325857478048
H           1.80685794056187   -0.61794347919435    0.35213615824303
O          -0.43904692149119    2.50223789395810    1.51592631599572
H          -0.09279958165786    2.23428149034116    0.62903592164882
H          -1.28811782157734    2.92005359551917    1.35938417390339
O          -0.86087271360336   -2.50260240581393   -2.13985098225266
H          -1.42488272445594   -2.44217864999661   -1.36195760271271
H           0.04139037240308   -2.34559931960460   -1.81866345683510
O          -0.33596381905214    0.03647571089084    2.11755141869826
H           0.66539291016764   -0.13558065317591    1.94337613364587
H          -0.43441714564457    1.05627519386029    2.07996037845884
H          -0.77163956526606   -0.27122316359877    1.17062343508986
