    19
        -40.92071424
S           1.34189304517636    0.59564928115635   -0.20686658729384
O           1.45600726398389    1.61717341499951   -1.22221237432174
O           0.39226751460207    0.98667868173552    0.85410995184994
O           1.01519602347884   -0.71387967897429   -0.72164209395892
O           2.75148805564604    0.49272141537392    0.49927763861301
H           3.09800678624951    1.37905228555797    0.44840141517347
O          -0.25364880354194   -1.00643396905654    2.52966824975846
H          -0.63402967377249   -0.63781675561376    3.32832674650597
H           0.11097830673944   -0.25516712850330    2.02086937328396
O          -0.67438005786070    0.76697922311355   -2.48351305115963
H           0.13127470675791    1.22887369772086   -2.15073746611474
H          -0.36273878039852   -0.09127988821744   -2.78533661132855
O          -1.80693652807497    0.42982827296997   -0.23474442417508
H          -1.52332720259653    0.59454884483703   -1.21130921921318
H          -1.00994660438777    0.80043727825159    0.29606372255696
O          -1.13832679486803   -1.91618841962573    0.18653268289468
H          -0.26139695938063   -1.74243105931839   -0.22678591203159
H          -0.95027603256137   -1.88043310244885    1.14819558291551
H          -1.68210427521213   -0.64831240397915   -0.06829761444712
