    19
        -40.91836424
S           0.61342155684820    0.84549280483117   -0.54723733971735
O           0.50681104680659   -0.50871063720616   -1.04373024566238
O          -0.58644520638221    1.61016390057395   -0.58882312053104
O           1.20144274833585    0.78000296130805    0.87650847018693
O           1.72846814965700    1.58261394161229   -1.31461598243182
H           2.48704289857743    0.94588702923525   -1.32999959592072
O          -3.08800770489835    0.51979445771508   -0.60011141558384
H          -2.28450313977939    1.06509260960928   -0.54634805538652
H          -3.39991270467148    0.58796141882558   -1.50419825246297
O           3.18202329198359   -0.54967718778828   -1.00982338045466
H           2.30022793662972   -0.94485728717900   -1.11868925672859
H           3.41249034443019   -0.62992028870969   -0.08070138876355
O          -1.60346096171135   -1.50974073938978    0.38499030178734
H          -2.33103494720585   -0.92785907429996    0.08609234266110
H          -0.88476180829804   -1.36142644928905   -0.25046146677683
O          -0.53242024900851   -0.25424629133586    2.37168894424672
H          -0.16835509787275   -0.89739568648328    2.98446960174650
H           0.49935408990284    0.42151324950273    1.54716856119015
H          -1.05238024329797   -0.77468872158457    1.68382128858005
