    19
        -40.92071429
S           1.44308040017701   -0.00246653867238   -0.34001492337845
O           2.25858553790328    1.02863625914055    0.25957508282354
O           0.80864542458431   -0.85842374744373    0.68195379233522
O           0.45485971648493    0.49342402026901   -1.26986031193688
O           2.42108636240247   -0.94907497726447   -1.14245800250409
H           3.23681778760914   -0.90292899414825   -0.65186493104456
O           0.19914445893037    2.59858889692589    0.64274862622309
H          -0.03656710337332    2.79657403638447   -0.26836230246486
H           1.07786705329714    2.15366213423419    0.58878427424293
O          -2.07109011126168   -0.08234858796989   -0.83492369683103
H          -1.22600805287572    0.17855857676794   -1.26888333124671
H          -2.00717358519567   -1.05915723558809   -0.77577938296828
O          -1.08480177726092   -2.49464404689261   -0.28396756021334
H          -1.25317759187033   -3.19316124450647    0.35016105557008
H          -0.28839060532295   -2.02017298551789    0.02735543111920
O          -1.14797271616224    0.56958841745805    1.36651981274411
H          -1.71459031075648    0.32777298506752    0.45548761014783
H          -0.35287445013211   -0.07259170031080    1.27432881799936
H          -0.71744043712889    1.48816473211314    1.18919992930343
