    19
        -40.91033587
S           0.42087548699336   -1.09374628406498    0.93088480750356
O           1.11709095752171    0.11047708194653    1.33165352665212
O          -1.02676292018789   -0.89309871817912    0.84939816468483
O           0.94894009321314   -1.66515749271812   -0.29680933893678
O           0.64312647119886   -2.14990968546708    2.08170713695502
H           0.04806736730677   -2.86592780938165    1.87493213892903
O          -0.28372641642681    2.30146276394504    1.49283925056407
H           0.26133427385880    1.48469296047833    1.61624980292753
H           0.31921833011162    3.04685956524400    1.51107092805770
O          -1.04617687057399   -1.24543572480062   -2.13429515483467
H          -0.42584612756546   -1.60629131912581   -1.48498715183208
H          -0.60268074551568   -1.28255778008904   -2.98351396675582
O           1.06347646387099    0.73608297139073   -1.41219952135574
H           1.13308434960774   -0.21430178778117   -1.17717805127009
H           1.65001745058605    1.17924286413252   -0.79269749910862
O          -1.31452051918006    1.14504780833271   -0.52380491860612
H          -1.38292026650858    0.21633354366199   -0.02274000940228
H          -1.04767282571379    1.77552116086978    0.23346815988731
H          -0.47492454257079    1.02070588162586   -1.09397829404877
