    19
        -40.92246908
S          -0.01938289410874    0.74679256074083   -0.76830452070885
O           1.40412864449689    0.94932460307059   -0.63041356397891
O          -0.40037163364660   -0.45258457457545   -1.45088683673943
O          -0.66608875745357    0.80913547140495    0.61292594804052
O          -0.64343046340003    1.96192845704019   -1.48868528092068
H          -0.28497255933139    2.74151377928216   -0.99490628520420
O           0.69254449036130    3.40249724268392    0.21476089783860
H           0.29649509391481    3.21588391531747    1.07062706677268
H           1.34279154898091    2.69969568340107    0.05270017116883
O           1.82756064559777   -1.56986865012045    0.24272932485547
H           1.60982660140007   -2.09353160080933   -0.53240034582990
H           1.90137475710680   -0.65120309701932   -0.06794136356857
O          -1.72896990566673   -2.48580271968452   -0.29870944958285
H          -2.66787535214093   -2.39351171090184   -0.46910879239456
H          -1.27805927033820   -1.83525176722394   -0.86991727871613
O          -0.37727476169773   -1.38414013792964    1.69754943597648
H           0.53427326540218   -1.57954314477486    1.37021423377100
H          -0.57249242701717   -0.13659254377226    1.16697066343551
H          -0.97007702270215   -1.94474177607820    1.14279596591613
