    19
        -40.92079124
S          -0.57574613276551    1.08445294432756   -0.83627154575227
O          -1.47174664800163    0.50877834152074   -1.80577428081455
O          -0.90673462727647    0.76847074108310    0.54633171059710
O           0.82889170690280    0.78646053422784   -1.12270171568934
O          -0.71701742845682    2.65724338991781   -0.94344770186287
H          -0.62819927286520    2.82318769176511   -1.87679050164380
O           0.99369636818951    1.23376068575264    2.29322833303244
H           0.21353679303880    1.24839415517047    1.68987041988969
H           0.66109549702155    1.01022349963462    3.16482842261928
O          -0.84818358497727   -2.05658532189600   -1.68207938175136
H          -1.58148184475658   -2.55611272196020   -2.04622855846511
H          -1.06192906480476   -1.10996343646081   -1.83059414204375
O          -0.21369321735516   -1.78624698367396    0.86202041532958
H          -0.70506863138481   -0.94121710754278    0.90993992821585
H          -0.40721597308630   -2.11929048632696   -0.04561706651960
O           1.92333679463656   -0.51728418854585    0.67419025760914
H           1.78165441563333    0.15252571918580    1.42343400080173
H           1.12249760468836   -1.21157549877597    0.79284382025250
H           1.59230725560344    0.02477802260086   -0.16718242379026
