    19
        -40.91857450
S          -0.87523761883792   -0.12390271034912   -0.65897939108341
O          -0.24664061887548    1.10033677009432   -1.32704029067823
O           0.14862192949651   -1.11584112655490   -0.40296375979306
O          -1.64444377884565    0.25024475862864    0.48274542213182
O          -1.81115774559875   -0.65974018046053   -1.76132811551910
H          -1.21122448650322   -1.08523370957700   -2.42584649263301
O           0.15940215155893   -1.86667318102298   -2.94379245693502
H           0.10503417752840   -2.81775062934302   -3.06682608184888
H           0.52141413127639   -1.71425805787797   -2.05181416152855
O           0.99558540296212   -1.17160810522005    2.18811575161338
H           0.47054837118539   -1.86451114733628    2.59282207243665
H           0.79853017494062   -1.20028361843255    1.23534701523385
O          -0.03779304465790    1.31865000001216    2.41119928367968
H          -0.83108622725233    1.02963053168376    1.93177113558569
H           0.47182888475396    0.49633339879521    2.55505148183146
O           1.08184202933784    2.40810709655149    0.35545385391890
H           0.73675199138050    2.04014787314912    1.22834935911330
H           0.34557860350147    1.64419267747713   -0.67097954624951
H           0.82244568265125    3.33215935977875    0.32871492073080
