    19
        -40.92267746
S           0.15347826382026   -0.69850573731502   -0.78947255369131
O           1.51046647806343   -0.91199400517470   -0.30850068388183
O          -0.80527855130379   -0.84594600333906    0.33391205352240
O          -0.02009513952787    0.57996752714186   -1.44079290442227
O          -0.20186748174960   -1.81455060454038   -1.81090240417001
H          -0.02728792827583   -2.63942870805940   -1.30565229352811
O          -1.57717424910598    2.45121845738900   -0.50241488849773
H          -1.00026598429065    1.83347084180780   -1.01606675060679
H          -2.47486930247011    2.29373111723288   -0.80136661583803
O           0.50094055444499   -3.36016772192569    0.18907731803601
H           1.21109846394170   -2.69938620616961    0.22005695068537
H          -0.18095319607536   -3.03294512338246    0.78474305509066
O           1.71865423751147    1.42975957003419    0.85004760087096
H           1.77866798889029    2.02711688087549    0.09932309962975
H           1.81090473210221    0.52346331323203    0.47027909715114
O          -0.71112967362722    1.27096435247021    1.57340123501362
H           0.29936434177975    1.43236026887078    1.44794683400475
H          -1.15932346185092    1.87506745633721    0.87683215353299
H          -0.82533008234380    0.28580431461326    1.12954970696736
