    19
        -40.92007400
S          -0.21222021797083    1.14577604383288    0.76868723025614
O          -1.24212601296169    0.11626428205769    0.52251330372449
O           0.37273403490381    1.00007841174460    2.08278822176618
O           0.73153942406533    1.20265696857244   -0.31636142552075
O          -0.99927289553546    2.52193514788761    0.76641302470184
H          -1.33134765848633    2.59389245561735    1.65632224369898
O           0.05156496953162   -1.96318006633945   -0.03053358119764
H          -0.61862608630639   -1.22854243947777    0.23043344571027
H           0.80415188167296   -1.82592442195509    0.64353741573440
O           1.72617128825106   -1.19965541247734    1.73167083740346
H           1.32025265147420   -0.31430912301250    1.90575472240088
H           1.81377241457711   -1.63008016963357    2.58501279854997
O          -1.56481211859427    0.51435932687827   -2.12163745952826
H          -1.37670011882237    1.44541867057835   -2.25488341234060
H          -1.62575732035182    0.39120085783964   -1.15593389354867
O           0.76920370983225   -0.75756376121967   -2.06451490885898
H           1.06606721497541    0.02350632726563   -1.54611993331272
H           0.42154134156468   -1.57434200334789   -0.99592604387091
H          -0.10613648182355   -0.46149107483416   -2.40722259578741
