    19
        -40.91671911
S          -0.78127099737424   -0.98995058337082    0.28740578802173
O          -1.25169923359754   -1.34559776460539    1.72804020544125
O           0.62361266137696   -1.26873890644540    0.21629801067426
O          -1.63329569722514   -1.61536326108441   -0.67085798520509
O          -0.99865460486159    0.53443486997236    0.20469659740082
H          -0.18093894296188    0.97031065600974    0.67197747646838
O           2.01144510337140   -0.43969875645970   -1.93821386422053
H           2.71181514863673   -1.07095251679681   -2.11413785056757
H           1.48120081251530   -0.81524913333202   -1.21057424036630
O           1.13436633942373    1.28717364842085    1.27943113606399
H           1.46602485155037    0.38895782433180    1.39315197048771
H           1.66571290072172    1.67389517090121    0.53341177493877
O           2.39791721995815    2.01294345620020   -0.91926177851693
H           2.34511520000113    1.14286723559045   -1.37211706763525
H           1.91404463680900    2.63065598663854   -1.46986464965449
O          -3.66118511638501   -0.80636385895416    0.88076773666649
H          -2.23140835666988   -1.22176848371454    1.71199524253043
H          -3.73332250185157    0.13598599475435    0.70809356529913
H          -3.27947942344812   -1.20354158806684    0.07975793217030
