    19
        -40.91671919
S           1.03991290961953    0.43369042357079   -0.63439834459467
O           0.37422048571118   -0.71381608827044   -1.17899922930527
O           2.50435181080666    0.01260949220236   -0.31677544081043
O           1.03547773803802    1.63385799966021   -1.40574467361387
O           0.44766517405538    0.74962979126927    0.75380561453546
H           0.18168607401613   -0.16214281121686    1.17189505117257
O          -2.78473246158192   -1.37250762455539    1.01035939746067
H          -3.20556276145467   -0.63065715108028    1.44793436363579
H          -2.72287202028827   -1.13130420479399    0.06027298948219
O          -0.18952023057881   -1.57267911829942    1.44114383464377
H           0.10313847117060   -1.96395843229485    0.60986316753168
H          -1.18282041108442   -1.58126464445247    1.40309832491846
O          -2.29638068283841   -0.63561008659049   -1.52412361431659
H          -1.32198344591722   -0.61618154721511   -1.48243391541875
H          -2.52214720737529   -1.15910079593239   -2.29543037531377
O           2.90120364035834    2.51772169372207    0.30063221783962
H           2.27448521605353    2.61616206039219   -0.43597981126267
H           2.41429752789998    2.73068788895477    1.10100127673552
H           2.94958018335348    0.84486315491746   -0.02612086334872
