    19
        -40.92246927
S          -1.05017462021028   -0.16897107226410   -0.12030537649464
O          -0.11810724814637    0.61852400949567   -1.03742892298681
O          -0.81904764727311   -1.58133483875279   -0.31582950510133
O          -0.93103107543417    0.28569744087750    1.23204333184194
O          -2.44838865681513    0.20247681499526   -0.66060149206293
H          -2.46728618082343   -0.19651393270353   -1.56644468994998
O           0.95653783780435    2.00151688066018    2.08176256571436
H           0.19837309260069    1.40437211269923    1.93590898560577
H           0.60629370513648    2.89376028453839    2.07168234945508
O          -1.74879829701580   -1.10610518884892   -2.79581916361552
H          -1.34288790338341   -1.67254806887734   -2.11950413004872
H          -1.03567745878864   -0.59264725937622   -3.18573707263890
O           1.44061299478334   -1.56439476350787    1.16200265777256
H           1.10632822497003   -1.36574181580952    2.04023739988192
H           0.66240467438213   -1.79551503241489    0.62641686132208
O           2.09263026786496    0.74534792666810    0.04276407415416
H           2.10794970128887   -0.16283273818035    0.43183922514178
H           0.89762428249902    0.71316234848793   -0.62589544441730
H           1.89264428651359    1.34174689232266    0.80290833643058
