    19
        -40.92174062
S          -0.34440788305156    0.78394303702244   -0.26318603893166
O          -0.32616271875993    0.78473639007271    1.17029943648146
O           0.94580840556652    1.00482926989076   -0.88150939691752
O          -0.96346808142411   -0.49794666006744   -0.78868730514634
O          -1.31814119890148    1.87886709260624   -0.75013605794269
H          -1.10060698899032    2.02808230592699   -1.70656662408660
O          -0.13244102052017    2.07209554548135   -3.05131686338764
H           0.24266313629218    2.92566275632362   -3.28241112326222
H           0.53434274069070    1.60488425936060   -2.51460878697114
O           2.14090225032144   -0.78470868651381    0.76037975561821
H           1.97908012275840   -0.36728931708084    1.61060965814993
H           1.93079773848360   -0.11266215492881    0.09109667822360
O          -1.00132635693263   -1.37350313297729    2.62976028947741
H          -1.94105574405507   -1.34687113987336    2.81704552720235
H          -0.76968735498590   -0.50410661214527    2.25138193409863
O           0.05913774771992   -2.39680561213840    0.41618519785959
H          -0.54748818926441   -1.38930180758707   -0.32358869209075
H           0.97062024931259   -2.03285376974899    0.51495752679919
H          -0.35856685431342   -2.27705175361729    1.30029490486409
