    19
        -40.91990213
S          -1.43339073651584   -0.38972487607181   -0.28385034738302
O          -0.34857175647470   -0.43356864474534   -1.29105648851653
O          -0.86008971247779   -0.24071599381425    1.04460308974672
O          -2.42990409252999    0.59115509326383   -0.59887398320261
O          -2.10381732394257   -1.81691672391348   -0.32666750725619
H          -1.50659176399376   -2.39156341750008    0.14756808171995
O          -0.96302458075353    2.52777907988949    0.41594894965602
H          -0.99799330913141    2.28047602772536    1.34487447320063
H          -1.64093608337282    1.96365995394879   -0.02239465676176
O           1.46230766744335   -2.14040721871655   -0.40312044204674
H           1.99658771130122   -2.49949558686292   -1.11341120687268
H           0.77148301549236   -1.58711883966450   -0.82658422953856
O           1.73436046797317   -0.03796912183497    1.27161655688766
H           1.96270358745542   -0.87306263344742    0.81809458980796
H           0.77459289862809   -0.14725847835056    1.46795694096296
O           1.11205863781287    1.47390630355888   -0.60185389241465
H           0.56436350714140    0.73196843697736   -1.06914791703479
H           0.36961864917060    2.06559558479398   -0.19873044400853
H           1.53624322691696    0.92326105454154    0.22502843299862
