    19
        -40.92246919
S          -0.58054539529652    0.86623711146948    0.24059952425978
O           0.50028587621205    1.38967225940206    1.04319699155416
O          -0.03249317584087    0.45566656160066   -1.12350157040632
O          -1.31414141373154   -0.20983073767911    0.83526731214059
O          -1.55526535844929    2.00932039351506   -0.11723734980145
H          -0.96577828082982    2.72625783787238   -0.46144880462044
O          -1.36909981256529   -2.71321586441786   -0.14325022033003
H          -2.13802414122425   -2.81902479594517   -0.70584394138163
H          -1.48060411500732   -1.86193006250913    0.32124213761258
O           0.57121697355500    3.33277962396097   -0.81629635349566
H           0.91723042329501    2.87173475701179   -0.03477332694636
H           0.92008837518262    2.86977954976491   -1.58317234484802
O           1.46652885987083   -1.06742668139439    1.60720116116921
H           1.27823496884985   -0.11491940370210    1.55097542612873
H           0.76460038812489   -1.44343281267347    2.14432555234545
O           0.99077900529127   -1.77425282298592   -0.90001760005533
H           0.45046192497341   -0.53288582288873   -1.10459035230672
H           1.38702674305888   -1.65425305365362   -0.00287961114956
H           0.18949814450119   -2.33027605680186   -0.74979661988525
