    19
        -40.91774356
S          -0.44585768517378    0.32675489214640   -0.96377442540701
O           0.49154368347025   -0.25451704137950   -1.87942151817337
O          -0.79181068354761   -0.68809361502597    0.13475171944742
O          -0.03380817696411    1.56587496029051   -0.36862503316370
O          -1.81233066786704    0.54717833979877   -1.65666406172872
H          -2.11720590224526   -0.35713799184631   -1.90384531857016
O           2.59995963047172   -0.03257962293449   -0.26140397586744
H           1.97425263087757   -0.20492739070018   -0.99136531536319
H           2.74552927327142    0.91658306423489   -0.25917548529311
O           0.59394582905783    1.90858610179199    2.20208576901569
H          -0.15732038692256    2.28516181236765    2.66318674691227
H           0.38536869691241    1.95696600042606    1.24743312804738
O          -2.34014262460099   -2.01311209472156   -1.66922132139183
H          -3.18449970902860   -2.27833897982754   -1.29506206685983
H          -1.70060415855338   -1.99234281592103   -0.94259745834609
O           1.04447573058243   -0.65125827879230    1.75793631093909
H           0.93444428060779    0.24928015892115    2.15370519757935
H           0.01798139658112   -0.72951836836177    0.91722412214806
H           1.79607881306693   -0.55455911047731    1.11483299607693
