    19
        -40.91989998
S           1.33288554370948   -0.00688820248953   -0.53024634582034
O           0.80770950750600    1.05139609016187    0.37386646584779
O           0.34670090545135   -1.06702804359363   -0.66394812395799
O           1.77042948994400    0.52549672093733   -1.78494168137078
O           2.56272027052140   -0.61836489367927    0.23716825482752
H           2.18497852676995   -1.04923266634383    1.00929864423406
O          -1.58173025115145    1.25522734773212   -0.24353692212111
H          -0.58893906265346    1.35335273081431    0.07222466140428
H          -1.84678833790767    0.34643495433413    0.23142765583436
O          -1.75296284563499   -0.99461302094074    0.84998417252198
H          -1.32196010853538   -0.94688895839008    1.71564448239841
H          -1.02212293592624   -1.27928764610079    0.24923353684370
O           0.56370164166953   -0.55415031539866    2.42092397457560
H           0.66036228449819    0.16116961475417    1.75749506026403
H           0.84568072290330   -0.18923677836740    3.26179596748222
O          -0.78649735976253    0.60066125853145   -2.57596269767019
H           0.18274467026531    0.70978830002596   -2.46662231248774
H          -0.91443833169987   -0.34851710454516   -2.67075452757300
H          -1.44247434995217    1.05068062256039   -1.24305024523822
