    19
        -40.91671919
S          -0.56656840832599    0.73873585564792    0.89707196243441
O          -0.84015838943516    1.05384857541525   -0.47484970054305
O           0.08578120179539    1.99710607790230    1.54023821423575
O          -1.65184680894659    0.28681164703360    1.70526247707771
O           0.55441682838924   -0.31836563813287    0.95874760461764
H           1.17943023321418   -0.12739385034346    0.15263618656091
O          -1.60052556676042   -0.92039588401513   -2.14242613824163
H          -1.41675426213915   -0.20153563179067   -1.50908569029063
H          -2.20495231731059   -0.55769990827885   -2.79284073495985
O           0.93088395292790   -1.64751271401879   -2.65921180865942
H          -0.02642881158110   -1.44738583089723   -2.56829787796195
H           1.05681389007552   -2.52459675453199   -2.29356613318670
O           1.79707094877416    0.31336115066554   -1.12169360860596
H           1.17647613490476    1.01420471125063   -1.35273606669564
H           1.61019418749860   -0.42707460105161   -1.75818489738610
O          -0.01927876921245    0.68037659788879    3.79176723245118
H           0.17986820049186    1.77202533322673    2.49726560973197
H          -0.83984104611885    0.37274934117519    3.37091252244618
H           0.59541879172987   -0.05725850708644    3.75899084698145
