    19
        -40.91671919
S          -0.65590917953296    0.42856170033202   -1.02938387836798
O          -0.61458982066093   -0.23729963308478   -2.43576606776006
O           0.63483195551957    1.00710793212243   -0.79312033981283
O          -1.79579411246975    1.28041710551888   -0.92782866769628
O          -0.85754751872040   -0.76411217018052   -0.07305281098532
H           0.07912666873559   -1.19006171245345    0.06222124713660
O           1.52870918765366   -1.49116927746015    0.14671501390919
H           1.78108740289201   -1.23899558947422    1.07467783097739
H           1.86118949870723   -0.77984751810752   -0.41292117433371
O           1.98010509064461   -0.49262506467762    2.54612518384483
H           1.34985829998044   -0.76496759078320    3.21508732775496
H           1.75872987901159    0.43828321106198    2.32413487453980
O           1.22020416790866    1.92767158850845    1.66958110070470
H           1.80507123938165    2.68306478560750    1.58442880833540
H           0.96290054284127    1.67735550608196    0.76249011410230
O          -3.15684443219443   -0.71532615354489   -2.08533148924580
H          -3.07923266603856    0.14746058803090   -1.64413548609335
H          -1.53830512316923   -0.54792046740044   -2.59586357552417
H          -3.26359107042061   -1.36759725010841   -1.38805801154566
