    19
        -40.91624615
S           0.08987542452977   -0.72935125640426    0.55189232379485
O           1.25628813079819   -0.86241553545609   -0.28554385805219
O          -0.09484531959746    0.75965666126876    0.89927614012223
O          -1.12425201823083   -1.26047175708591    0.02013097747031
O           0.35630173292489   -1.38024395113120    1.92441381215699
H           1.31985479694019   -1.24525045607265    2.12311220196263
O          -1.45842026024235    0.45909922775991   -2.25441537352697
H          -1.31415345254279   -0.44242145854044   -1.94500948247081
H          -2.18192474922659    0.79300409422186   -1.69050258766435
O           2.91896126427111   -1.02572219272164    1.76293459842684
H           3.47141575558972   -1.81093128143998    1.79035700242343
H           2.63382151971875   -0.90705972071714    0.83757606528695
O          -2.92371165417922    0.83556260979885    0.01146387869132
H          -2.52781468159938   -0.03624952143729    0.16224104614476
H          -2.48892344976856    1.43216468221488    0.62515663994103
O           0.64154869215617    1.69567739015523   -1.30025232455155
H          -0.14114564158483    1.36647883809032   -1.82175396852192
H           0.21587958989555    1.29093802104751    0.06108323023720
H           1.35124433011198    1.06753561646795   -1.47216032192192
