    19
        -40.91418265
S           0.57520084134155   -1.52470857896372    0.76232631996178
O          -0.83979122528591   -1.00418119187248    0.51074188323596
O           0.92580011874656   -2.46678092308637   -0.25036905516875
O           1.45313275958807   -0.42383788111833    1.00621374415913
O           0.43758183982356   -2.31668620163939    2.12272788132853
H           0.15902861556018   -3.20816259520313    1.92148591768529
O           1.62826541480046   -0.31350083439459   -1.79193616528471
H           1.98414972507495    0.06686599252047   -0.98207011584624
H           1.51683418119797   -1.25384265410771   -1.59912985473848
O          -0.93428200689734    2.67771983082662   -0.36277665850721
H          -0.91470493604784    1.96004042008824   -1.04597910493106
H          -1.74873304363823    3.16273781662523   -0.50410398315174
O          -0.93257697303680    0.54522240573427   -1.92639020357370
H          -1.25032520532416   -0.15154927205552   -1.34235666524063
H           0.00611628247643    0.32813813842474   -2.09907607736521
O          -0.66830987360816    1.13664806928383    1.71092971865988
H          -0.89579749472971   -0.07182080233987    1.06044984997652
H           0.28798425839958    1.03338028093427    1.82006034551218
H          -0.78957328840620    1.82431798032882    0.98925222328777
