    19
        -40.92052666
S           0.75297737094389    0.37066949000361   -0.01726595801052
O           0.52350552438128   -0.96874329857959   -0.49897177920360
O          -0.43082076855821    1.01358467645842    0.49656497626896
O           1.83876303264812    0.38049707825507    1.06247638640563
O           1.38162159568711    1.20604010803980   -1.13621206637573
H           0.98465812315467    0.86361659816041   -2.02017432417692
O           0.10906494631859    0.14451770282986   -3.04090033803434
H           0.16339811171052   -0.74479831478854   -2.67168502052681
H          -0.77040918422263    0.48943666395119   -2.76350244883441
O          -1.97485822341443    1.12750348024531   -1.70303897407365
H          -2.28336212196958    2.03102334343069   -1.79874885177318
H          -1.55134358021447    1.07232182134708   -0.82554520557055
O          -0.24465685486885   -2.22116673180706    1.75426188569505
H          -0.06265878196605   -1.86849628592848    0.86273222239729
H           0.28486070158394   -3.01614266870585    1.84486758791945
O           0.29280871361280    0.05456792189018    3.03150727416568
H           0.02117580943568   -0.85802314696923    2.78115689958492
H           1.35789209023963    0.29108697911888    1.96649078990894
H          -0.39261650450182    0.63250456305029    2.67598693422925
