    19
        -40.92174077
S           0.26897016269010   -0.85057419712151    0.08154092736048
O           1.60473150374093   -0.29488704283003    0.13341999549502
O          -0.54600723637615   -0.55071573169812    1.22213296098766
O          -0.42565852252040   -0.42345461832335   -1.19836093570451
O           0.37832948195421   -2.38386713511831   -0.06400278321296
H           1.14625154874262   -2.54338126409370   -0.67157696692089
O          -2.81907131749406    0.87834179256698    1.03930365130644
H          -2.05178301457952    0.31880895179393    1.26487931310722
H          -3.55412984848607    0.28248950334652    0.88585284674051
O           2.60194209133194   -2.21458886911688   -1.39294570932619
H           3.37509407525391   -2.63952758043490   -1.01299327522304
H           2.53655733951553   -1.32999362566580   -0.98780526151679
O           0.66813818006465    2.12306166920239    0.90996905285770
H           0.25525001556486    1.88525642316815    1.74435067933040
H           1.21233285991001    1.35934319884595    0.65649993679346
O          -1.27545320997060    1.87485914618211   -0.88294539193750
H          -0.54817218030417    2.22306321395576   -0.31492292056709
H          -0.80978268855091    0.59303497120967   -1.15126549027511
H          -2.01753923098647    1.69273119432893   -0.26113062899633
