    19
        -40.92267746
S          -0.29139863416619   -0.96460608817117   -0.34321817903722
O          -0.73708433036020   -1.28789145183762    1.00398837831190
O          -1.16853630270166   -0.03730109213554   -1.02107359806200
O           1.09423776741856   -0.43416536313355   -0.29875650887287
O          -0.22716692311874   -2.27152392551063   -1.18150669618395
H           0.35314605292398   -2.85203908788822   -0.64042682139475
O          -0.42552155153096    2.36040513600692   -1.73277978997861
H           0.01400540369316    2.31454641239023   -2.58405710320740
H          -0.84110128841914    1.47506648886108   -1.58590414871592
O           1.29911390158456   -3.04084846027497    0.80809134780807
H           0.58154130618644   -2.60468279312371    1.29489067740670
H           1.96557756556299   -2.36045711345266    0.66774126047729
O          -1.16557080130639    1.20062209697695    1.70856148678591
H          -1.95003773031438    1.42684792824025    1.20128773198913
H          -1.06385939379084    0.22399591557922    1.60999530344692
O           0.88928141744322    1.91140667072638    0.39424883749634
H           1.11359504319880    0.88680601225563    0.10655744703196
H           0.45445898355795    2.28449030486181   -0.45565397901445
H           0.10531953475093    1.76932839924945    1.04801436393618
