    19
        -40.92037957
S          -0.78744330520305   -0.28259893761019   -0.68278484685142
O          -0.92087754437491   -0.92929587891466    0.68440080110720
O          -0.65229114666203    1.15542245602627   -0.51860620843075
O           0.25429879411989   -0.89141508866919   -1.44663202569301
O          -2.14773168561401   -0.56835816744932   -1.35268646050486
H          -2.78815914249369    0.06767602201329   -0.94555303996326
O          -3.25850961553115    1.51428421519511   -0.25978655612397
H          -3.61466033753214    2.15933559912661   -0.87576551801771
H          -2.30249980037656    1.69230130807772   -0.18097289826470
O           1.69091889403271    1.48993524842582    0.74181403012948
H           0.88752507580590    1.45994776346180    0.18713769012312
H           1.63080291031975    2.29082709901022    1.26627984048092
O           2.41260945934846   -2.12206674220539   -0.41071588320864
H           1.63923388465548   -1.82280447761903   -0.92401161785362
H           3.16924014022330   -1.66137289723783   -0.77954737636889
O           1.32845450253986   -0.96868574001284    1.71327342760699
H           1.82327458916354   -1.54050601341486    1.07640136464198
H           1.60873382400636   -0.04881201301842    1.50690329692340
H           0.02708050351782   -0.99381375521398    1.20085199029766
