    19
        -40.92135332
S           0.15275942858791   -1.29971021200988   -0.85163156509468
O          -0.51721934757749   -1.88882879202174    0.30835769432479
O          -0.77933738408045   -0.64034661893212   -1.73967864531039
O           1.26256447225584   -0.44971129719679   -0.45015946982874
O           0.79180768162745   -2.49936706328591   -1.65343615378018
H           0.02911562882882   -2.95212323961414   -1.99991120050559
O           1.27518106548194    0.31201310421196    2.08336460122775
H           1.72481831916142   -0.34481822046186    2.61824805101863
H           1.42975731885401    0.06241622599608    1.14395143882666
O          -1.64721499181767    1.36418645032768   -0.29192387343219
H          -0.83971420808152    1.91186108161036   -0.44019434654177
H          -1.54073063029847    0.63089770576901   -0.94290912550083
O           0.78247513658244    2.14339083342668   -0.98196235364338
H           1.09585290293778    1.23041465287655   -0.83073607417519
H           0.87175556810706    2.30530068246047   -1.92264466456647
O          -1.23631669623063    0.01539222274101    1.74219704520704
H          -1.49632620542553    0.69926611967887    0.93072367395863
H          -1.05919994501444   -0.86928555846486    1.22709991210421
H          -0.30002810390864    0.26905193287586    2.05124504571245
