    19
        -40.91893376
S           1.68167498289795   -0.25507154828327    0.35628184381595
O           2.21909781912178   -0.94429846540480   -0.78945458754391
O           1.20303579096195    1.08851887408464    0.09655037585013
O           0.66256991223373   -1.05289622290319    1.05500504572535
O           2.87794592021265   -0.09958548987079    1.38804787474800
H           3.39872397484627   -0.88128276543791    1.23043356145770
O          -2.12107054800546   -1.03240572489128   -1.25843848484444
H          -1.30850402180393   -0.66117648709674   -1.69661321563910
H          -2.08167680833433   -1.98231466808690   -1.38594543738847
O           0.14626168882685   -0.09581372395012   -2.18469602628959
H           0.26501891689210    0.82742163318167   -1.94218140919729
H           0.93784499480183   -0.54238165138651   -1.82114894118522
O          -1.00734972275999    2.11374602935444    0.97538229370191
H          -0.12998062706805    1.83945225018852    0.60179785078918
H          -0.81740322496605    2.60385200059447    1.77741669941575
O          -1.68689756661100   -0.32676556983245    1.13047548976491
H          -0.67730243915125   -0.67903203734340    1.17591886106501
H          -1.57619374197417    0.69215057715147    1.11085701722947
H          -1.98579528017366   -0.61211702007079    0.18031119850060
