    19
        -40.92174076
S          -0.54397904495242    0.29022720762809   -0.65014028949106
O          -0.04311062140937    1.28434350269857    0.38151502379533
O           0.52992929403341   -0.08121289564305   -1.54705771343481
O          -1.19613226431718   -0.81470942319460   -0.01085223031069
O          -1.59347388803505    1.09664675856930   -1.44537189665707
H          -1.07733544176109    1.66724518319288   -2.07177638102039
O           1.57542055315664   -1.79804146094605    0.26560559016707
H           0.84411123983362   -2.41435889870759    0.35747444777834
H           1.37383555113110   -1.26264611369782   -0.51948808276542
O          -1.18255811846288   -1.15751664189439    2.65885540696990
H          -1.31342413997937   -1.15421730863123    1.69163558408340
H          -1.94191714121799   -0.71144883490244    3.03751026495397
O           0.20370001611772    2.08221396717032   -3.03843911228974
H           0.67570760326179    1.32940161416233   -2.63682073336710
H           0.11547235012937    1.88919357754445   -3.97528039600507
O           1.14309962446176    0.02651449242433    2.14663521716006
H           0.37519779668197   -0.40478088137780    2.58784717350788
H           1.54040599036832   -0.67807657881925    1.58227446595419
H           0.51505064094885    0.81122276442818    1.18587367097885
