    19
        -40.92179453
S          -0.70276063007669   -0.50787062435345   -0.41726639999872
O          -0.20199963359012    0.89268070118080   -0.86706060443447
O           0.11244650393590   -0.93639789755831    0.70183922165796
O          -2.10114484499623   -0.46810279776027   -0.15317335738409
O          -0.39561394886300   -1.37108033202687   -1.63609376882592
H           0.54538897078828   -1.11828321878507   -1.96577386404072
O          -1.36823286159736    0.44532034046936    2.49697054306152
H          -2.17997159966359   -0.06834631619051    2.47709039465742
H          -0.71012161910668   -0.09786316608327    2.03111934179046
O           2.73160716595081   -0.90811038308037    0.23145062414794
H           3.10315675265416   -1.73996807575763    0.53113165008541
H           1.80349561717397   -0.89164656860816    0.54330452511882
O           1.90996653660398   -0.53073909714422   -2.24514795060846
H           1.73924144990339    0.41469217848619   -2.29156411062432
H           2.38771591669295   -0.67847152722615   -1.39084526697261
O          -1.74585106194357    2.26871819750559    0.59568033123423
H          -1.59099155111514    1.77036952753490    1.43476366145834
H          -0.74574853368952    1.57443939826717   -0.33871600714384
H          -2.59058263904738    1.95065967112906    0.26229103682692
