    19
        -40.91892577
S          -0.43378166949220   -0.55953898519215    1.24632081652824
O          -1.00043642621298   -1.04361172854140   -0.02628865557128
O           0.93499572125923   -0.13941784809846    1.07485099288197
O          -1.29515667722991    0.42444009018699    1.86574312591268
O          -0.40896889527555   -1.81959851622458    2.20155216614234
H          -1.30327494574302   -1.89414704476935    2.52141961332859
O          -1.14756799531030    2.42948141347502    0.21978215031175
H          -1.98697113960777    2.89396068182403    0.24747724255482
H          -1.17964422473697    1.75195289673527    0.94288436510115
O           1.54164859406022   -2.03086805383369   -0.75648153630834
H           1.47459119115881   -1.57286075787837    0.09790134539974
H           0.64290934624156   -2.31002768955184   -0.95455435644842
O          -0.56406450577193    0.79350447832300   -1.63507803173380
H          -0.80665334151469    1.57367485478045   -1.01861005528692
H          -0.82101484269144   -0.04383291922969   -1.05266407666116
O           1.91250118705941    0.53575209902958   -1.40270166694497
H           1.99686020485535   -0.44257059139440   -1.46443331344383
H           0.50136704902576    0.75389364265905   -1.66055295249507
H           1.94266136993137    0.69981397771458   -0.44656717326327
