    19
        -40.91010038
S           0.25164340312553   -1.25454886999927   -1.60215007980533
O          -0.22898814425237   -2.34924564606011   -2.36205195253182
O           1.60380083891224   -0.77657032929193   -2.09834282279732
O          -0.61161525845461   -0.12987515335358   -1.38436545837510
O           0.58716482363979   -1.81936728012016   -0.13847333280993
H           0.77650779238904   -2.74795101999204   -0.25285234048044
O          -0.99125766103105    1.42290938379527    2.23921241155428
H          -1.21939043300367    1.20928023073361    3.14513830233060
H          -1.57663579994145    0.87977603984223    1.66883642845856
O          -2.43442040577986   -0.13476994187536    0.57748217299490
H          -3.24119222964923    0.20697543903267    0.18721807232653
H          -1.78379988521369   -0.18310267157662   -0.14901549435471
O           1.37589376489536    0.50890285875204    1.35675819381422
H           0.57559158872291    0.93866358292195    1.73359152274071
H           1.10648469990559   -0.38255999414512    1.11120831281256
O           1.65602809855094    1.47034102555190   -1.04143584850390
H           1.67755569205596    1.21432842889582   -0.07212166859524
H           1.73146784476473    0.19561393417457   -1.70186042301745
H           0.74516127037975    1.73119998279796   -1.21677599574150
