    19
        -40.90733251
S           0.98115021519908   -0.48115082922757   -1.52996115779016
O          -0.16534666823672    0.36838262614904   -1.55689163969070
O           2.18709922346786    0.01686517150646   -0.95290179578973
O           0.62107203053661   -1.83205858335071   -0.90550194686886
O           1.30638614149133   -0.86909114306021   -3.02731233800327
H           2.22056313079081   -1.14453988889831   -3.05023309043337
O           1.09544655789490    0.14885766176705    1.56043653007329
H           1.09536650968856    1.07273515884758    1.85889528161800
H           1.66092496525034    0.11110270470340    0.77677315367915
O          -0.12917689078315    2.57065742134021    2.26721166503441
H          -0.38625739975680    2.68351472482662    3.18383919786439
H          -0.85951496388253    2.11031554741698    1.82952223649597
O          -1.44862090491839    0.43904937803749    0.83120726512083
H          -0.60242260406775    0.16330506245091    1.25376037553554
H          -1.17024035348132    0.77411258825829   -0.03537437198998
O          -1.87663209208411   -1.77811064475824   -0.53325245719761
H          -2.24193328949657   -1.41929118320650   -1.34647247930368
H          -0.39496763921715   -1.90294369458798   -0.74578466820554
H          -1.89289596807833   -1.03171207799568    0.12204023020232
