    19
        -40.91892659
S          -0.48662258029645    0.16804029774131    1.33810911103695
O           0.04546052806989    1.42558172750285    1.81712251901154
O          -1.38568055505714    0.37007655681608    0.18635451385402
O           0.50746080985612   -0.83511461691248    1.04711982385752
O          -1.40238306350037   -0.41603793358803    2.48757243772379
H          -1.85794553444870    0.34351240343633    2.83861155553059
O          -1.12603201587057   -2.36336526987861   -0.46653892206776
H          -0.62370134400464   -2.04513597429690    0.30210152444519
H          -1.83056225538322   -1.71872610749555   -0.58066949031925
O           1.57520341397343    2.18456333139457   -0.14113681967542
H           1.57489537363679    3.14412003350936   -0.15863151586684
H           1.09454189906528    1.92040322766513    0.68474402434806
O           0.14264482397431    0.80067578618855   -1.71953335108116
H           0.79853850090440    1.41682814880930   -1.23224442413116
H          -0.60638396518321    0.64889013941311   -0.99679855436676
O           1.15247472804540   -1.48040261854884   -1.54652837979432
H           0.34073151985546   -2.02746708659036   -1.44492413690851
H           0.61783853469245   -0.15237642493677   -1.78032438545712
H           1.46952118165710   -1.38406560025324   -0.63440553016561
