    19
        -40.91365374
S           0.69305314865633   -1.34987396301221   -1.35618436237210
O           0.70888520643373    0.05637992833365   -1.92409033327420
O           0.96686106448259   -1.29551939865259    0.06600517369475
O          -0.46828658118104   -2.08408591744993   -1.71331394913442
O           1.94215293125350   -1.99347360736263   -2.05314071256877
H           2.70550874177061   -1.49185607276515   -1.77335056183857
O           0.55505099675354    0.28018389292254    2.28771863837308
H          -0.31948534753610   -0.08221957332888    2.45714578451886
H           0.93424754555898   -0.27974627046281    1.59245737947808
O           0.15427931970591    2.60342827971513    1.02046646203772
H          -0.26318418930484    3.22225043560069    1.62143529310097
H           0.41330964555886    1.81836425403160    1.55487194583291
O          -1.66833669000043   -0.95472951139200    0.57777624069915
H          -0.74170860541753   -1.24047214122119    0.50247931479535
H          -2.15533110129910   -1.54810200082418   -0.00050557404816
O          -1.14266251435942    1.26429644980176   -0.84183626737205
H          -0.68090833108831    1.88599182219121   -0.22060362801046
H          -0.11951965834018    0.64392956112509   -1.51670198573023
H          -1.51392557161319    0.54525382272936   -0.28062886818825
