    19
        -40.91892674
S          -1.17155771053063   -0.31407281088189   -0.76583411623283
O           0.09625630731439    0.01694713198774   -1.44307220640191
O          -1.35743859620796   -1.74579941771036   -0.66833417303623
O          -1.28986619915710    0.39528504357674    0.48394644557809
O          -2.30996360438804    0.23853495427433   -1.71417356675854
H          -2.37906631077619   -0.41124806370165   -2.40751941440015
O           1.83816056935126   -0.40103464490122    0.27294734569278
H           1.45610076244185   -1.27506046499514    0.64446531254599
H           1.20214071039299   -0.20330504016214   -0.54119405269467
O          -0.04781213327056    2.63057086807621   -0.38401373476871
H          -0.75813997703985    2.01397018516894   -0.13957996938703
H           0.32438659596472    2.26596773200142   -1.19231814342137
O           0.52482045426758   -2.46036889308264    0.97353500524917
H           0.80140697739839   -3.34753726763601    0.73376301320840
H          -0.27479194072711   -2.25903674102437    0.42296101041003
O           0.93069762025520    1.38636561966912    1.76848530899693
H           1.57936924095781    0.35947704377334    0.97406968381930
H           0.78979776176916    2.10956137109764    1.11621956275634
H           0.04549949198445    1.00078338447059    1.86564667885003
