    19
        -40.92453850
S          -0.46284045331803    1.37114748803180   -0.47712818164688
O          -0.19506660803102    1.46894623459662    0.95355939183261
O           0.75611129359733    1.05173882153232   -1.21131992637056
O          -1.54698527089927    0.45993350169827   -0.77793902422701
O          -0.93365179088366    2.80029485759514   -0.95769412354889
H          -0.20411544294390    3.37979457503107   -0.75829898562828
O           0.53728072009878   -2.00602824860107    0.63955336051949
H           1.23183213740177   -1.26285141616750    0.88030734559877
H           0.40821592505937   -1.90975485171191   -0.39506648794842
O           0.17323459286147   -1.41666928868399   -1.78383645700774
H           0.50562497632782   -0.48595289725064   -1.72812592313020
H          -0.77725457339289   -1.31030069485961   -1.90654746950831
O           1.96130279468511    0.03335607052256    1.04125814231310
H           2.31468035085279    0.27798271867518    0.17788521682802
H           1.20435733647684    0.66015410868451    1.16872181657690
O          -1.56352293375366   -0.87371898102916    1.45043633495531
H          -1.27694412338033   -0.15667000708432    2.02852169782846
H          -1.77129997961674   -0.41503729629670    0.59959559940517
H          -0.36095897114172   -1.66636468469172    1.05611768315623
