    19
        -40.91389482
S           0.80247914064841   -1.31719323591209   -0.68660557708314
O          -0.54024120895278   -1.68991155140394   -0.19147420307935
O           0.75750068449582   -0.79805761655881   -2.02606478408301
O           1.48354754101236   -0.48903626172902    0.28771665708758
O           1.62458074801856   -2.66996147946458   -0.74518216988916
H           1.36379890498092   -3.09168697285244   -1.55931800334356
O          -1.41737487032506    1.25752858307983    1.84129483458451
H          -2.15006816535713    1.17383156185230    1.22593345032169
H          -0.67821199387335    1.71246472336797    1.32937192991578
O          -0.81638445659491    1.34573977903932   -1.92594984505443
H          -0.77153842319001    1.79365991423507   -2.77284460032009
H          -0.29923811281695    0.52061513801832   -2.02881234864372
O           0.50104963948424    2.06153791210844    0.30822195866377
H           1.08343295721484    1.28403592091618    0.31089440664512
H           0.02749193900419    2.01401198324832   -0.54660402853956
O          -0.27467362837997   -0.95656927551836    2.09912349314192
H          -0.81260766247146   -0.04124544239674    2.11003916770420
H          -0.53446533773489   -1.40213390198960    1.10830658761804
H           0.65092230486489   -0.70762978809187    1.86195304438501
