    19
        -40.92174056
S           0.78397732427086    0.42758737657977    0.07324713709215
O           0.13758523007519    0.49992082276513    1.35074153505156
O           1.37396465406840   -0.85895131566394   -0.23102720989990
O          -0.17052405219808    0.83955797613439   -1.03236098851457
O           1.88978297238723    1.50361182710522    0.01232573288993
H           2.47514863718621    1.24742690642024   -0.74655372546275
O          -0.85031625881948   -2.17294790845385    0.57642897010366
H           0.03017551787995   -1.91859207397343    0.25442302165107
H          -0.87986452539251   -1.90428482894188    1.49837760030729
O           3.20924217166891    0.21042576556291   -1.81161439054999
H           4.10377012877672   -0.06446084448661   -1.59483129585647
H           2.60983105771284   -0.47633210336249   -1.46530157528209
O          -2.49845003899312    0.97531827689421    1.61474408588705
H          -2.64394334289926    1.92007525799682    1.68752870171329
H          -1.53508873925005    0.83694908106802    1.68915012256536
O          -2.30936659259210   -0.34730134806905   -0.68477741493204
H          -1.13418042615779    0.33967106106249   -0.96596042700869
H          -1.95027262997117   -1.19491332782063   -0.33045351520375
H          -2.64147108779308    0.13723940918541    0.10591363546576
