    19
        -40.91224353
S           0.65337701675206    0.14150129328368    0.08682006859841
O          -0.72770662283950    0.15299035261805   -0.33039939005517
O           1.52103951489473   -0.69834400788147   -0.67814767282976
O           1.17570593786206    1.59030315120571    0.11826921522703
O           0.72806521708646   -0.29102009253031    1.56370505455180
H          -0.16521825541113   -0.02036390243084    1.98203441072664
O          -1.68761202513517    0.11354497966721    2.19160581575589
H          -1.83323687327981    0.21971739834802    1.23800057057900
H          -1.84942961242132   -0.82623709395638    2.38717179059056
O          -1.01021657296696   -2.52974067284104    2.44753204536910
H          -0.81163841545266   -3.00571736544556    3.25663637207017
H          -0.16786394760529   -2.27936049516161    2.05344331455569
O           1.30548571214862    0.27361500204014   -3.18201134414252
H           0.95330722959042   -0.41947174879355   -3.74382657232993
H           1.53560491661554   -0.15052214284226   -2.33479289323180
O          -0.05329230964588    2.25872640360817   -1.99940638891830
H          -0.80047966007730    1.70957663836033   -1.73008294084336
H           0.77394676038996    2.04880782491167   -0.69486864671028
H           0.46016198947216    1.71199446781345   -2.63168280886773
