    19
        -40.91892658
S          -1.39867588095541    0.18259523205805    0.26087537890574
O          -2.10540719286449   -0.30986025620084   -0.90187337590152
O          -0.65058246478749   -0.89741931617643    0.93125000671033
O          -0.54958950047082    1.32130043398144    0.01272137069161
O          -2.49137177627755    0.64693384734008    1.30555397175417
H          -3.17524207999915   -0.01379748034542    1.24615116646567
O           0.90088930918467    1.04484110614648    2.27237904860836
H           0.22782605242276    1.36590927304717    1.64885343216833
H           0.61490190132112    0.15639368999864    2.50399274421926
O           1.33959685523836   -1.24973503334797   -0.50692782009231
H           0.53740667856440   -1.20899894221964    0.17241607691314
H           0.86599622287861   -1.18934772670271   -1.41222638999472
O          -0.17415703825257   -0.93462313101726   -2.52366702698362
H          -0.46975716213739   -1.67277829176853   -3.06108245535915
H          -0.96423743039219   -0.63151467369323   -2.00708237140761
O           2.18919528547569    1.06110883966483   -0.06726053860359
H           2.06073400169847    1.11507289102172    0.90708320346895
H           1.82840564560012   -0.31310159635703   -0.36253816972714
H           1.41406858374914    1.52702113457334   -0.41861826183823
