    19
        -40.92174071
S          -0.84647439297277   -0.12888436372169   -0.26347016031390
O          -0.58729203790363    0.66217883094249    1.00530070614486
O          -0.13833281180858    0.44537593831863   -1.36972036225525
O          -0.57609097168334   -1.53336935176690   -0.03945225855915
O          -2.36264585374516    0.05026627932379   -0.49488188491962
H          -2.80720205457519   -0.57942584728880    0.12969423626946
O          -2.95055112783197   -1.94658038715892    1.05653223990866
H          -3.42719953057675   -2.68316834993043    0.66546569532635
H          -2.00333962700844   -2.09542553872617    0.87904904384972
O           2.09288705184062   -1.14987226713382   -0.27795805170471
H           2.13731377088404   -0.82956027725010   -1.18280221075679
H           1.19815516151663   -1.51218651718286   -0.16888693389807
O           1.64197089084805    2.44116805679876   -1.07073823722844
H           1.00401211564406    1.75669390205856   -1.34865252921039
H           1.18911028901342    3.28259063134303   -1.14787580001950
O           1.84543728408865    1.05129152211936    1.18691070324092
H           1.96189227837137    1.71340385703154    0.46672225123163
H           0.47002753800319    0.85644874446474    1.17355577564115
H           2.15832201787934    0.19905515776343    0.80120776725673
