    19
        -40.92158871
S           0.47969802263001    1.22670424718733    0.66584138464170
O          -0.06626291611078    1.30334819469993   -0.69527561696081
O          -0.36866893290088    1.86621673671367    1.63448053637387
O           0.86131631719301   -0.14075883476439    0.98626569039472
O           1.84097693638434    2.03791008561861    0.63963622475967
H           1.57979894182785    2.93516785429244    0.82304485277285
O          -1.21936174290409   -1.67867437814660    0.33658755671535
H          -0.45728738053685   -1.33866593727124    0.84584046078025
H          -1.91930436969057   -1.00137024109891    0.49411766776318
O           2.16963361297288   -1.41777337635346   -0.88829640582370
H           2.43003566682474   -2.27845301783513   -0.55400276615942
H           1.87773031218265   -0.88837382619289   -0.10905570398549
O          -2.50714262265566    0.60296079313200    0.67345305480455
H          -1.83632092436317    1.10676819230396    1.17450407822284
H          -2.62782257760794    1.08731667788741   -0.14667984513454
O          -0.17057780436329   -0.91680490436153   -1.78949071797346
H          -0.14238034156679    0.08403515699508   -1.45796632225486
H           0.78849184012934   -1.21971307941574   -1.64943860387882
H          -0.71255202746636   -1.36984036337057   -0.98356551506366
