    19
        -40.92135274
S           0.35418453608819   -0.79169682649547   -0.18241434655708
O          -0.10164644507653   -1.09474946099911    1.17066701485110
O          -0.77367878318837   -0.34611331355744   -1.02525246542825
O           1.41930730469472    0.18776626178228   -0.20030488886492
O           0.90017842381168   -2.10046869780407   -0.81544830484690
H           0.25596321973916   -2.79550823102089   -0.54906706361442
O          -0.88031032675795   -3.51719456862481    0.48982751893476
H          -0.83598372379202   -2.66131034727290    0.95956026615403
H          -0.54899006289779   -4.18219880528328    1.09809287359770
O          -0.26018404174903    1.44616774517351    1.84307438532426
H           0.66904020878794    1.69306475250309    1.82301147174386
H          -0.26687175956155    0.46539753046755    1.76524669642703
O           1.10501856173335    2.47806280650568   -1.42116613680397
H           1.24827411190178    2.35043356441466   -2.36089922373313
H           1.39392953700313    1.64108131474799   -0.98096486159553
O          -1.20507216296269    1.99138139373626   -0.46268713695691
H          -0.96070096511257    1.92087632046857    0.52944765089543
H          -0.37420793871387    2.38423555956780   -0.90747524289788
H          -1.13824969392414    0.93077300170111   -0.77324820661416
