    19
        -40.91628470
S           0.51041167397083    0.58895729132900    1.02102598233691
O           1.14151367108107    0.86332724633324   -0.25138112540634
O          -1.00945815232961    0.63700325960399    0.83314984858778
O           0.89672607887418   -0.63045500887730    1.65293756906428
O           0.80436220206377    1.75474377397235    1.99348991410157
H           0.83154581158028    2.58068502067687    1.44714289440690
O           1.09313438241423    3.48372903236287    0.07107304850193
H           1.94670069352315    3.91920185072660    0.00936577626630
H           1.17660531260528    2.62487200103681   -0.38509677801695
O          -0.10066805822057   -2.94916092472633    0.75279736058052
H           0.65433766165103   -3.54091763819967    0.75668700889935
H           0.20974133822010   -2.11983980063465    1.16474694334171
O          -1.29500322925615   -2.37396188938317   -1.57152401575610
H          -2.18937043810979   -2.71037657823271   -1.49147798790699
H          -0.83802689394846   -2.61905731412384   -0.73538305828452
O          -1.15655626337266    0.25602053910586   -1.63241206381929
H          -0.21664178082763    0.44761466771221   -1.74269402967069
H          -1.24742645933707   -0.73006543751762   -1.71249600399857
H          -1.21192754059976    0.51767990881875   -0.17995128323273
