    19
        -40.92136351
S          -0.94983472523193    0.27164196008533   -0.97454011332183
O           0.23448251733492   -0.55629748324413   -1.26428378822620
O          -2.17703312954583   -0.48007094665067   -1.06291343138071
O          -0.78167616740991    0.99336141582398    0.26647652161205
O          -0.98400847733609    1.35925767458618   -2.13068864235717
H          -1.50878477079448    0.95539172377776   -2.81608799284708
O           1.40764138804016    0.62250003955186    1.65738563862412
H           2.01545742470453    0.89947768191756    0.93661866841837
H           0.53890226106235    0.96759533189086    1.34821270256173
O           2.18583688327002    1.23209866739564   -0.81714244705653
H           1.55375960939509    0.56085534954175   -1.13661237250278
H           1.86926830877026    2.07384809774387   -1.14911459442430
O          -1.75190794260091   -1.47430412160654    1.33949157916693
H          -1.94421595084455   -0.70587265866072    1.88404924970294
H          -2.05187625310001   -1.23130571475379    0.43411990038203
O           0.75993776411112   -1.65541552742416    0.92920062652575
H           1.14505058558662   -0.73253534160032    1.37477043812330
H          -0.21528987705210   -1.73038230586589    1.23259381906843
H           0.65429054161397   -1.36984385255123   -0.05153577211856
