    19
        -40.91898062
S           0.97643117046524    0.93449007264438   -0.91447616110286
O          -0.30400620341165    0.41278254409637   -1.36530037109813
O           0.94801602205241    2.32312882675625   -0.53710238273768
O           1.52695427384600    0.07502796771662    0.14798172489888
O           1.97208613557706    0.79228961531441   -2.13716806567576
H           2.62344294953130    1.47723280197629   -2.01182177205666
O           0.18432924089090   -2.14970419478706   -0.93496702297510
H          -0.06002939301013   -1.26480380966817   -1.27723087145330
H           1.08910734949761   -2.04581875872557   -0.62473857452794
O          -1.41973190048821    1.82013131692620    0.58580011311106
H          -0.71117699670441    2.46622303352157    0.42422074481586
H          -1.42478494347625    1.30936904735802   -0.24522984396837
O          -1.34699955384438   -2.05784263414849    1.17551595558592
H          -2.24017993870003   -1.92248741411616    0.85236747326624
H          -0.78140493534356   -2.24584185404364    0.37270565033487
O          -0.19335445903065    0.05619257930693    1.93263053417193
H          -0.69469587770356   -0.83865268309909    1.73633100715267
H           0.63517482149948    0.04306317983435    1.27708142428808
H          -0.77917774154593    0.81522036305445    1.54340043803580
