    19
        -40.91241701
S           0.76424946987156    0.46943074416510    1.17042977463218
O          -0.55887179776854    0.86244472137269    1.62436458316748
O           0.96629732091997   -0.96310480943166    1.17889563025147
O           1.08631427659172    1.05190564723152   -0.13306678642020
O           1.80617829948464    1.07751259239890    2.18869785157281
H           1.64068508127085    2.01640434248762    2.17255430674747
O          -1.76176568246586    1.90198710711123   -0.60617141772371
H          -1.32730669272577    1.73897232913487    0.24346646414437
H          -2.69561103645766    1.73366801245636   -0.46874402265082
O           1.43730800198383   -1.99665469586083   -1.15992444424054
H           1.33641255694408   -1.72045302293434   -0.21200469119337
H           2.35126871047283   -1.82241752054830   -1.39354696414537
O          -1.71073411610668   -1.00521982855034    0.13606223002660
H          -1.44928458643974   -0.32648510967656    0.79502516567139
H          -1.30496756166782   -1.82269079931593    0.43862276793844
O          -0.24041697932910   -0.21740991795767   -1.80343677396249
H           0.41883881519541   -1.00899054584062   -1.74805628081035
H          -1.01572647187108   -0.47926634130498   -1.18577361375329
H           0.25713239370424    0.51036710592154   -1.23739377915755
