    19
        -40.92343663
S          -1.31180428257930   -1.04851899343603    0.15502416967561
O          -1.05782866480525   -0.90968292638814    1.58973855005019
O          -2.00252050222812    0.10314549854679   -0.38489181070161
O          -0.09626524442643   -1.36464154251410   -0.57829022297871
O          -2.26172090031799   -2.29489865430030   -0.00677052266239
H          -3.02625617988499   -2.04297267799406    0.50173438612230
O           0.95289663607443    0.64189032099189   -1.96457561172999
H           0.63903628984450    0.71296525350434   -2.86706642541588
H           0.51188958120570   -0.14843085904435   -1.58170991990476
O          -0.30377986706442    2.06658689332109   -0.06580663944960
H           0.26403005751365    1.81752908145153   -0.82494546288285
H          -1.10330461734405    1.49850334016501   -0.17588489714039
O           2.26874765633369   -0.56450985383767    0.36323167730566
H           2.53253447440981   -0.05667703662746   -0.41195111759448
H           1.51694877402125   -1.11628214431788    0.06232199912388
O           0.71374469601698    0.81418187562019    1.83283661959502
H          -0.03879865472983    0.09073324979190    1.89279894448124
H           1.48147855729541    0.31581194845755    1.36556131922297
H           0.32097218065323    1.48526723659666    1.09864496485596
