    19
        -40.91892618
S          -1.07734865195650   -0.20195515536635   -0.92485458407686
O          -1.23206269848074   -0.57614951167981    0.49325888512349
O          -0.20158223106768    0.93491106608753   -1.06573743335078
O          -0.71832155197257   -1.34607130639457   -1.73495412515648
O          -2.51307598198253    0.26583856722326   -1.39485535238347
H          -2.98593355277013   -0.54481132682844   -1.55901374979820
O          -1.00110363024167    2.14553073559580    1.21193921210342
H          -0.92678140275344    1.92734982556561    0.26778841467934
H          -1.47073706147741    1.40077430284690    1.59844748669563
O           1.59589052800035    1.59454291815809    0.90820693912741
H           1.41159032914751    1.57593119972382   -0.04437406107733
H           0.78867128496539    2.01282260426398    1.28440779999072
O           1.67270152384226   -1.91604283728193   -0.89357020353341
H           0.81085971335741   -1.70532419591318   -1.33614929599034
H           1.79540048422638   -2.86407366954225   -0.97864795450566
O           1.09247663180499   -0.81971738965048    1.32416332490713
H           0.06774025093707   -0.76462136787768    1.09286359653606
H           1.47596667051450   -1.31173589363238    0.51263369753733
H           1.41564934587961    0.19280141472107    1.23844741326130
