    19
        -40.92079119
S          -0.50815581855200   -0.67000379366628    1.22482605091016
O          -1.28941649049322    0.26807478037896    1.98873804323676
O          -1.17795283186403   -1.08545070622831   -0.00913779201349
O           0.85652937906456   -0.23616469614158    0.95959718247443
O          -0.35968344503039   -1.97982495943649    2.10080064996925
H          -1.25356305632823   -2.16830044971532    2.36896461079417
O           0.63549100800710    1.66604177625187   -0.89515325735696
H           0.92072838449320    1.16324504678736   -0.10545056778275
H          -0.23092953889178    2.05280106025031   -0.62698559849376
O           2.11578880251099   -1.56395529975347   -0.91895267202124
H           1.73610678754182   -1.19933008435736   -0.08470421227758
H           3.00296561967566   -1.20683493965052   -0.99445156809152
O          -1.67883265975655    2.21311233134678    0.24179077044385
H          -1.63788162388026    1.48777589310132    0.90205916324080
H          -1.91143092857894    3.00544889499883    0.72962652185719
O           0.09096670456023   -0.47723769744361   -2.04542486126786
H           0.31118958571209    0.51720510180184   -1.72996230880240
H           0.93616831149423   -0.99672838474308   -1.83021243775708
H          -0.55808818617537   -0.78987386909660   -1.27596772034608
