    19
        -40.92079104
S           0.13106583435301   -0.39385650963813   -1.42646806120194
O           1.33299259511727    0.18645679311484   -1.96742945011766
O           0.40631564363285   -1.47519026094617   -0.47845626364140
O          -0.79894241206400    0.57378237739092   -0.86103869056201
O          -0.65048298196222   -1.05962529315645   -2.63105102574908
H           0.01820063354371   -1.57873832265247   -3.06678602682002
O           2.61595581397251    0.94755484335331    0.21469328344543
H           2.22612278905873    0.61180077702040   -0.62137914721187
H           3.25769999790070    1.61373280258697   -0.03876221314917
O          -2.66939348537444   -0.42784646579553    0.68142123440866
H          -3.22989516619350    0.29156954522154    0.97889237169268
H          -2.11101974953325   -0.06648685235837   -0.04691250977884
O           0.31356254362979    1.34979723726459    1.43395401681251
H           1.26467772970942    1.29031127285758    1.18094419225742
H          -0.15596610106205    1.36080736437410    0.57535020405586
O          -0.43840172600623   -0.99861904488518    1.79861536146114
H          -0.07336355273502    0.00263275378686    1.83089961471415
H          -1.41802257705069   -0.89569219394069    1.55372005699857
H          -0.02110581893718   -1.33239081360405    0.88979305237875
