    19
        -40.91955056
S           0.77348807363308   -0.73705247978758    0.47137639902250
O           1.05855457915487   -0.53732048280811   -1.02888209486069
O           0.69306793584697    0.56205941523972    1.09843680030887
O          -0.35488774541386   -1.58501499569658    0.66723111473671
O           2.05779364565668   -1.44738535106879    0.94414778611568
H           2.76397153360990   -0.76568723546586    0.81151880813377
O          -2.65400407726700   -0.45939363125359   -0.28260786790602
H          -2.58073584624210    0.36889296742304    0.23233775328665
H          -2.06006420206784   -1.08127305332925    0.16701130985976
O          -1.81922944540706    1.57973402836130    1.28540893033117
H          -2.03992833365781    1.60989068727077    2.21802557013946
H          -0.88432065908741    1.31252377514526    1.23344509703941
O           3.27051317267522    0.77697582883140    0.37347325533438
H           3.22746041636638    0.86685500007500   -0.58259685349832
H           2.43720502967260    1.13312456209012    0.72239088748861
O          -1.06992208931833   -0.15067321468456   -2.29174993891810
H          -1.23203721843810   -0.88840769974829   -2.88455199628932
H          -1.77887538229943   -0.20484574822808   -1.57382497984862
H           0.19195061266251   -0.35300238236817   -1.58058999053050
