    19
        -40.92218957
S          -0.23303490042605   -0.10062064495994    1.12925484897823
O           0.63380727401284    1.03743981399351    0.84049194440768
O          -1.44156067604203   -0.05826009594133    0.31234270155933
O           0.47828565272648   -1.36817552672513    0.96379094367569
O          -0.65358734780575   -0.02550872246761    2.62611932136783
H          -1.11835433876301    0.83603561189474    2.66826571841042
O          -1.63557440147440    2.25642569421977    1.75850549026799
H          -2.06872818547774    1.71984025230676    1.08155683110150
H          -0.74538658233045    2.41331380207165    1.41654835943675
O          -1.16226235799460   -1.10244893655949   -2.04464285007432
H          -1.35205854685099   -0.63567754227510   -1.18664619237143
H          -1.79041159747757   -1.82599745283626   -2.09776514753995
O           2.20621783827621    0.67635997057520   -1.18921384521841
H           3.10269471076088    0.75741354557597   -0.85649476657169
H           1.60874480144062    0.92749762276925   -0.43407036126960
O           1.21297778331123   -1.63655902935520   -1.37755808424207
H           1.71103802041929   -0.73225186778961   -1.45188726594842
H           0.96055374374281   -1.65424465148726   -0.34510162898852
H           0.28663908999641   -1.48458185301633   -1.81349600697484
