    19
        -40.91821036
S           1.83620943378402   -0.48459996715380    0.58016262461054
O           1.81188038369871    0.67131947117498   -0.30354908490922
O           0.99114469023026   -0.24608267750837    1.76290103489660
O           1.52301503853470   -1.72179641949567   -0.08674561516619
O           3.30674751075057   -0.60040101154657    1.13916734496263
H           3.41781248395764    0.22660459683391    1.59832937726048
O          -1.41272693487027   -0.53339603317904    1.31952348590555
H          -0.38513516738786   -0.42201892774381    1.61074506849934
H          -1.71604085223674    0.38760964157313    1.02618574170847
O          -2.04405724415363    1.68775922301725    0.17016172478661
H          -1.40394924715855    1.56218372523301   -0.56518377779549
H          -2.91856663352031    1.73051734267546   -0.22120870499809
O          -0.30922485354241    0.92302751968561   -1.72040839627492
H          -0.05568992950974    1.38229031058100   -2.52282361056843
H           0.53173423005408    0.84585088417851   -1.18243876034935
O          -0.95111202019788   -1.61590102482865   -0.89277432952220
H          -0.86104806643682   -0.82759527005820   -1.45566209174096
H          -0.02201323482178   -1.87553213726452   -0.68147124762725
H          -1.33897958715885   -1.08983924615608    0.42508920626190
