    19
        -40.92071342
S          -1.09064898633834    0.77198228246152   -0.63801366680666
O           0.15116490595451    0.51247239119109   -1.32944387785070
O          -2.21641408641264    0.02266141073167   -1.14681249267023
O          -0.92193321356431    0.58311274099991    0.81639151977355
O          -1.43617408422214    2.30161618256130   -0.83279541968022
H          -2.38711761437945    2.32919445640461   -0.77698214961108
O          -0.80801735753793   -2.17518071172873   -1.34850017862643
H          -1.49016157214712   -1.46276189251418   -1.33711470502188
H          -0.19039139837259   -1.91742602373277   -2.03918908918461
O           1.39263673027146    1.54560162322155    1.77292931132638
H           1.31977329461039    1.67915017434334    2.71896920101742
H           0.49198444136314    1.34750850412829    1.44796398753341
O           2.21085552676868   -0.33173900091167    0.06745591560222
H           2.25310523033715    0.37795647424854    0.74213724944488
H           1.65137764816456    0.05815801500458   -0.64331831384276
O           0.27045693603425   -1.63202668990689    0.88683993513566
H          -0.29476694651698   -0.78681927070699    1.02810000575907
H          -0.13462073360193   -2.03300663890546    0.02883477944135
H           1.22889126960074   -1.19045402686216    0.58254799825978
