    19
        -40.91892664
S          -1.31176851453804   -0.57704971743894    0.03673251197646
O          -1.62876807418747   -0.97364680435915   -1.31831251649955
O          -0.15181006801498   -1.32518166112151    0.55670486784214
O          -1.13721957132733    0.84198244561363    0.22395610768927
O          -2.53157989595095   -1.01056400124503    0.94510062633723
H          -2.78829624915881   -1.86439722615782    0.60925533441793
O           0.42273230000773   -0.11549976794957   -2.66199022676049
H          -0.43400395643184   -0.38373582893704   -2.24127849941527
H           0.55895514780192   -0.71171788268374   -3.40158422064576
O           0.16281779963452    0.61622273818387    2.58094349341436
H           0.34937948597059   -0.32603908339169    2.53423157977920
H          -0.55601010939375    0.75708616473098    1.94236456388846
O           1.80585983442775   -0.26290912017780   -0.53537433812340
H           1.06363820346872   -0.80517023661411   -0.02404420069423
H           1.40362738014492   -0.16728720146536   -1.47173160305009
O           1.36150628438752    1.92812980517310    0.58529898257729
H           1.75277728017341    0.70333110852010   -0.08721860515666
H           0.47014658980472    2.05068714272717    0.22148325328465
H           1.18801613318075    1.62575913659448    1.50546288914090
