    19
        -40.91667359
S           0.44899327594400   -1.01365358605290    0.54128074133962
O          -0.83548256972873   -0.36552330759193    0.34801206776307
O           1.12371097140841   -1.16506259310413   -0.82373483620984
O           1.31293758692802   -0.37556228258843    1.47814556597505
O           0.21098313859976   -2.47017434094742    0.99535734078598
H          -0.58288514979315   -2.79833669415279    0.50292371698955
O           1.29352404741429    2.66653234011831   -0.62785571410106
H           2.22530962298868    2.55391511219583   -0.43280396677744
H           0.82009011386911    2.57841464449801    0.23236772799278
O           0.04878798236172    1.99388756038045    1.63782957428648
H          -0.76468074425693    1.56789941153890    1.34986750923186
H           0.64516255988014    1.25414919507434    1.84236004567543
O          -2.06282535114776   -2.63216726594863   -0.26051868709172
H          -1.91371196966668   -1.67190541280341   -0.18022810276087
H          -2.83872997686021   -2.84487368519535    0.26375019689533
O           0.16622792331280    0.78715338765351   -2.07369892589457
H           0.62724015169402    1.56390968514223   -1.65744273436241
H           0.79264588771235   -0.40306865737730   -1.44305607681316
H          -0.71729748063401    0.77446647916426   -1.69255543292038
