    19
        -40.91389505
S          -0.69756796160302    1.10618758333707   -1.06698252143319
O          -1.83037342834501    1.38701071444806   -0.22844423285041
O           0.56236355646163    1.61969496745631   -0.48599957437254
O          -0.53697916424937   -0.27627180074648   -1.46816885377853
O          -0.90704848234028    1.91850201893088   -2.41065696978489
H          -1.28187888177086    2.75468746954382   -2.14788947108536
O           1.97276112286675   -1.42341252687478    1.03898584670162
H           1.03524283698115   -1.78293461616697    0.95565278378191
H           1.94905750806196   -0.79320133603254    1.76335022805758
O          -1.33986796476005    0.18530145477337    2.09584639968794
H          -2.13095257738352    0.23655924965012    2.63575139754107
H          -1.52720689444215    0.71038718421067    1.29093563994768
O          -0.53087785210732   -1.95905769828059    0.68592534856645
H          -0.69099379940664   -1.54963153330642   -0.18029454396571
H          -0.90727047580954   -1.32829262865216    1.33217075802377
O           2.01193375816272   -0.20049633130187   -1.14777145039590
H           1.49528455625026    0.74082492492548   -0.82771999361643
H           2.12558932133173   -0.74165363114140   -0.24247262377107
H           1.22878479206603   -0.60420345476635   -1.59221818725206
