    19
        -40.92008982
S          -0.32224803895002   -0.56034417399288    0.48727692450597
O           0.14641223597712   -0.89735846266387   -0.82813979962210
O          -0.15763289389678    0.83742607792004    0.82557058445597
O          -1.79473224193238   -0.95141571951575    0.64060392424628
O           0.38155427902716   -1.42492671589883    1.53701410117068
H           1.32389667937838   -1.61863034913132    1.16941177584391
O           2.58562498594849   -1.55843426637168    0.32394737262254
H           2.15185586420479   -1.56711784443017   -0.53898707889207
H           2.83013624920733   -0.61969096310126    0.48339763912284
O           2.53703675067581    1.05870741634581    0.85647035816961
H           2.79716405528014    1.43241887125615    1.70097183406083
H           1.56637690771872    1.13090000252767    0.80987847508276
O          -1.83765198601552    2.00866654632441   -0.93986689730959
H          -1.15459680051419    1.72222074122319   -0.30666544406617
H          -2.44593186178715    2.56603272745148   -0.45005456441168
O          -2.43865891957212   -0.46609087379972   -1.74621065719239
H          -1.57782404151686   -0.75481505392546   -2.07562719092813
H          -2.22090544353917   -0.84817898776662   -0.29134284299348
H          -2.36987580972380    0.51063104757856   -1.65764849385359
