    19
        -40.91892672
S          -1.38357595661460    0.37782763605540   -0.00421896585339
O          -1.56765857957237    1.28771340056813    1.10573426820119
O          -0.45497484453704    0.93490247046298   -1.00563571494809
O          -0.99699647935719   -0.95981899344922    0.37065729112010
O          -2.77631271759508    0.26014023875827   -0.74389437683936
H          -3.12448173808065    1.14703203351718   -0.74098680548294
O           1.57625425471413   -1.85280345220042   -0.01052164015857
H           1.22335247472672   -1.99496147828974   -0.91806291487041
H           0.78115241886317   -1.89249201007534    0.54436476247972
O          -0.10087207286759   -1.65188496570296   -2.08069792018134
H          -0.07391972305094   -0.76948703423836   -2.46208881527315
H          -0.68635484946026   -1.56929831346017   -1.30938294458092
O           0.76978251162759    1.29096698137395    2.24013319289358
H          -0.17111095583644    1.26922065266718    1.92836314363373
H           0.90514123714248    2.15753308006855    2.62977380248020
O           1.79039644097078    0.63893702979355    0.00605152776465
H           1.54785181623741    0.91845848345838    0.96032374353105
H           1.84140134092575   -0.42614671880174    0.01088563754490
H           0.90092541104769    0.83416096774261   -0.52079729153680
