    19
        -40.91983418
S          -0.54658101416475    0.61665947572302    0.38828274354656
O          -0.47225754038186    0.18843188226805   -0.98321042612902
O           0.49082549421885    0.05117248943411    1.22307347674681
O          -0.51266707128636    2.14183101073867    0.47039181070376
O          -1.91926586140111    0.26467123263005    0.97242714734308
H          -2.20848770844933   -0.61383425172293    0.52690583433406
O          -2.17468670191829   -1.90868264596814   -0.28719884128467
H          -1.74531616238969   -1.54577724876007   -1.07179519345944
H          -1.46872686475324   -2.39063535077143    0.19949547693016
O           2.56908369060339    0.84315500295358   -0.32049536367236
H           1.95312582195352    0.55767490415681    0.37619006254473
H           2.84078436589271    0.04615535035943   -0.78097377151090
O          -0.04340679779580   -2.58481617198073    1.17630084744258
H          -0.12945903369683   -2.90856990342284    2.07542026275074
H           0.27850492202488   -1.66604235640948    1.24382294630279
O           0.90543040932689    2.51818941514070   -1.58273035882545
H           0.44653637642855    1.82758409743601   -2.07675965158532
H           0.03056633246983    2.47972559918999   -0.33493553100008
H           1.70599735332419    2.08310746900032   -1.21421146117853
