    19
        -40.92120620
S          -0.01898323425306    1.14166317610046    0.77349517651620
O           0.65512167029957    1.19352989794356    2.04146400964467
O           0.89591026667507    1.10028028032674   -0.36786088427699
O          -1.04602724561880    0.11907932663433    0.65826390440769
O          -0.81285599645287    2.51901009163396    0.61946680306299
H          -0.28820365978605    3.14699562748277    1.10700895404356
O          -1.95339041495822    0.40740825910346   -1.78140260404815
H          -2.01916754496162    1.34646136175531   -1.96458263433540
H          -1.81394673990692    0.32695810688085   -0.80961396448953
O           1.82785046860139   -1.15652844607269    1.56967871847057
H           1.46697032185717   -0.26829771158117    1.75669088095716
H           2.19188323320324   -1.47851925072051    2.39703241854649
O           0.01191550447893   -2.23380682132994   -0.05227340451831
H          -0.64266472605578   -1.62432790066568    0.33810169766565
H           0.81038295944076   -2.08285945017445    0.49769165071474
O           0.35233289032040   -0.69139524998889   -1.98412461851462
H           0.72439588134703    0.08151692190384   -1.37299832634405
H           0.25154796773577   -1.48324585356374   -1.27521375054899
H          -0.59307162195773   -0.36392237565388   -2.15082402694463
