    19
        -40.92267749
S          -0.29949013387845    1.00461929649286    0.18843915259420
O          -0.25209858537588   -0.09350630964372    1.18575673776071
O           1.05256684260889    1.44374752732301   -0.12349122724028
O          -1.04452500386348    0.59668888409247   -0.98083206687681
O          -1.06608629288225    2.17337498010357    0.86769992614669
H          -0.48252326702036    2.41061470180077    1.62233993694839
O           1.61665735319078   -0.60902325097650   -1.65234414294344
H           1.57107890975759    0.22027716519299   -1.11918371045163
H           1.08022656199119   -0.43997125379091   -2.43180501447226
O          -1.85999073600303   -1.85160614711378   -1.36574790464067
H          -2.69963036371523   -1.97930272956582   -0.91990736456822
H          -1.67789219172504   -0.87966904121077   -1.34414035389118
O           0.99489090802208    2.09823433323800    2.48907010212554
H           0.83147925935238    1.19589883201787    2.78199830820853
H           1.44267916490615    2.01536524781726    1.63195294442203
O           0.31409586449708   -2.11958648778078   -0.07945608774827
H           0.95685076594569   -1.66339478914791   -0.74404233092309
H           0.08496790666202   -1.29682748981729    0.59255103551112
H          -0.56325697219286   -2.22593346758994   -0.59885794927008
