    19
        -40.91864571
S          -1.13114407813306    0.31393420791806   -0.11508151013191
O          -0.13925645082145    0.17085611314932    1.09054194947245
O          -0.43351559916556   -0.13072070333903   -1.29866893020516
O          -2.33764216672433   -0.36293466300645    0.21078467154900
O          -1.33213157802488    1.82669257904451   -0.19221044733117
H          -0.56029629572884    2.19574620255853   -0.76103369777549
O           0.70441002856931    2.33909134327012   -1.59431612725357
H           0.60368378892405    1.48371791223130   -2.03354104643470
H           1.40817522216608    2.20989826603004   -0.92201851489877
O           0.04560786124564   -2.71058318472533   -0.70651453889304
H          -0.16784772987530   -1.83250034401120   -1.07417987073080
H           0.94256272359281   -2.91212794940778   -0.98048498136605
O           2.14496700904342    1.61977023383892    0.55146953386423
H           2.31682945812629    2.22983647348894    1.27142200838966
H           1.43318116659105    1.02991644381349    0.84787491063554
O          -0.85954102153313   -2.14795555328678    1.73508206691388
H          -0.34277177443234   -0.75467866465209    1.49822382484077
H          -1.78967461996474   -1.97532309891692    1.54015730276910
H          -0.50559592380922   -2.59263562400635    0.93249336658131
