    19
        -40.91749337
S          -0.41060926326980   -0.15670061632472    1.22691875686092
O          -1.19199424093847   -0.35539791064513    2.40674015115770
O           0.17646094231664    1.25338007929825    1.22891042272588
O           0.62055964420342   -1.11164425032062    0.93696165863162
O          -1.38083137612678   -0.16478028704006   -0.00519202228138
H          -2.20547132253833    0.29129147833884    0.30262384995158
O           0.39324904075954   -1.62063353954455   -1.70825651644712
H          -0.52956823004061   -1.38033066695846   -1.82306227539550
H           0.53734801248709   -1.60975598995331   -0.74471497905571
O          -3.33417169208677    0.81757194812129    1.39272333199995
H          -2.71170694429084    0.53491012100051    2.08881590879353
H          -4.13090112504013    0.29248855618556    1.50362799085464
O           1.92035393004531    0.47232216965801   -2.35727966294094
H           1.34355765664588   -0.31712001978565   -2.23338340246337
H           2.63195954717884    0.20186780366700   -2.93985315682594
O           2.43054451614793    0.85260537568429    0.20925825461303
H           2.29558623064356    0.84850862916399   -0.77310351232384
H           1.12424986691133    1.22482939216093    0.80681670145590
H           2.42138479692468   -0.07341227266050    0.48144851069402
