    19
        -40.91464813
S          -1.35672766349132    0.41679086247630   -0.44693506673062
O          -1.87303505209307   -0.64563538430076   -1.40560493174619
O          -1.17501344549834   -0.16077988186746    0.85289056960844
O          -0.24215411010890    1.12864916216780   -0.99011994297037
O          -2.55228629775192    1.42686622679611   -0.37945168654290
H          -3.23890609799609    1.03683374399598    0.15807119410396
O           1.47524649535639    2.37770123647708    0.74913477487796
H           2.19312084419508    2.77377508488487    0.25142892813487
H           0.82717901871090    2.06331584015244    0.09785038608360
O           1.45297389323735   -0.18446132336266    1.74859728828381
H           0.48691563127777   -0.23367074296591    1.73546598613614
H           1.65044272792024    0.76150249772330    1.63674141152134
O           1.55588592291681   -0.99375053181456   -0.77471116817473
H           1.71881866216923   -0.79621373170559    0.18121007008964
H           1.15735243909233   -0.19056454756117   -1.13182779139555
O          -0.48878179103365   -2.55604487766342   -0.64988577531355
H          -0.64745172110988   -2.58340493755462    0.29906811597397
H          -1.34868456280217   -1.53689368451494   -1.16820625606307
H           0.40510511702710   -2.10401502133418   -0.76371610588948
