    19
        -40.92218937
S           0.98729549988674    0.27092984257122   -0.53974073503865
O           1.11602060852221    1.20314079893460    0.58015690618826
O           0.96773252123188   -1.11392535721787   -0.07972361007411
O          -0.19018740110795    0.57035195622647   -1.34850413670829
O           2.25111728668705    0.47200447606775   -1.42591015975062
H           2.10229136205378   -0.17179587521502   -2.14933466508990
O          -0.82838047245515    1.00046300907221    2.08819926167109
H           0.05799437235227    1.19248741466993    1.53458729948760
H          -1.55597610507406    1.13613719422495    1.36439339606763
O           1.02006476651559   -1.40315925660227   -2.80158520419563
H           0.99624523301360   -1.89020550588694   -1.96745216819760
H           0.25804861126003   -0.80989832070556   -2.76307208306532
O          -2.27435951251194    1.25229571852974    0.03481220997477
H          -1.54818139753198    0.95309536153760   -0.57625545805026
H          -2.50921890200750    2.13931957629830   -0.24615316301969
O          -0.40007595924744   -1.48682170641984    2.09057707910259
H           0.21210038307632   -1.83861317754342    2.74042145263477
H          -0.76294119742449   -0.02250688117138    2.23357577170720
H           0.10041031275282   -1.45329925734315    1.23100799635037
