    19
        -40.92174048
S           0.58688416058848   -0.03317927764105    0.67730511926752
O           0.03396647040085   -1.34719337511452    0.92937529993119
O           1.11512810809683    0.04782550846345   -0.74305965307971
O          -0.31011598552184    1.05254023799242    0.94491939250512
O           1.85401260534833    0.14237085906838    1.54212627273661
H           2.31011002916211   -0.73854906936973    1.53581517333894
O          -1.14674943945726    2.74465458149547   -0.97348283207715
H          -0.90768696795678    2.24832754764943   -0.16777911837208
H          -0.54777333456571    3.49165311123863   -1.02064484083048
O          -2.25828769565773   -0.73384800605298   -0.37284144092949
H          -2.57357475142524   -0.00741099020566    0.17124044816521
H          -1.54620155998553   -1.15612464782278    0.13539397195332
O           2.41307469689172   -2.39088748218719    1.44047801821540
H           1.47872981489341   -2.37454362874936    1.16192553091356
H           2.44803100516448   -2.86801431919011    2.27343569350500
O          -0.79876988836411    0.44047710156388   -2.25523995015907
H          -1.47660120012873   -0.09083246808495   -1.77437655695526
H          -1.00178477798088    1.37669022465403   -2.02604193421356
H           0.32760871047907    0.19604409231134   -1.47854860386169
