    19
        -40.91893369
S          -1.57708018336608   -0.72891447323331   -0.00053295243506
O          -1.83313633752777   -1.14024781012957   -1.35738258183126
O          -0.43627185656303   -1.44630344239612    0.58924649284484
O          -1.45142570815969    0.70175443185567    0.19651241305960
O          -2.84076911311289   -1.17401165136627    0.85116509920392
H          -3.11301195639258   -1.98195866793168    0.42659762759899
O           0.05977853967572    0.53033331313370   -2.12795876062667
H          -0.31969088965606    1.28723257380203   -1.67147267620573
H          -0.61423212733412   -0.17217083097791   -2.02744666290917
O           0.31823204755668    1.88376590912297    1.67295000451758
H          -0.06410892147388    2.03826694948435    2.53867313580884
H          -0.41765705889959    1.54574277663848    1.09957353316432
O           2.41816447949459   -0.06683141293014   -1.14562853706016
H           2.65799394392134   -0.91093738095077   -1.53304511891653
H           1.57119310864274    0.20940191054779   -1.58809432646263
O           1.61415597830917   -0.25594641645841    1.24460975912331
H           1.23502960031984    0.66370890867459    1.49304331319540
H           0.73630036301477   -0.82855541977464    1.02571761406140
H           2.05653609159572   -0.15432925703587    0.31347260389636
