    19
        -40.92136503
S          -0.98627778546184    0.30729814250489    0.24134074510437
O          -0.19691923321735   -0.92862195823888    0.76156711847144
O          -0.09907986362380    1.05184244804033   -0.61912213008408
O          -2.21435405650815   -0.09873875101960   -0.36318003709791
O          -1.27094783134511    1.07248191610769    1.52914999622647
H          -0.41255048665492    1.07567575646015    2.08928929447736
O          -1.75649107463246   -1.71028768156890   -2.45198255513460
H          -2.06304462073769   -1.05824921435285   -1.79170893175506
H          -2.33237249782586   -2.47267147872596   -2.36572250097197
O           2.17687155955813    1.75179886616371    0.52363400002559
H           2.33377590302756    2.68819021246506    0.38855078970174
H           1.38552896718297    1.52388613370992   -0.01069490425578
O           0.96587476238583    0.90091517698181    2.70762837836750
H           1.09552995887342   -0.05188994156546    2.71452685052240
H           1.56261532561940    1.25600906556369    2.00244325572500
O           0.71734529175164   -1.56130226355828   -1.51162205487149
H           0.24347037822151   -1.32133802285806   -0.06925188113029
H          -0.12270102642536   -1.75167541444229   -1.99318098220285
H           0.97372630981128   -0.67332298166561   -1.78166445110590
