    19
        -40.90863228
S          -0.07310164494557    1.01681169702467   -1.53055646281078
O           0.04587070169586   -0.47710572602289   -1.85237246731797
O          -1.30823266410310    1.29519621781072   -0.85814605415969
O           1.11429205549218    1.49539791918934   -0.90523051867537
O          -0.16936742771206    1.62854423851263   -2.96957623140617
H          -1.04984978867974    1.43009726969099   -3.28111147332430
O          -1.43794550707667   -2.07711615257623    0.98164234989958
H          -0.54974506764293   -2.27903236439774    0.67626140640782
H          -1.39344643949407   -1.18983245276418    1.36087964335857
O          -1.17748436592699    0.67605358509853    1.73727753559050
H          -1.30933543199882    0.94519349450690    0.80647200983008
H          -1.91477508333215    1.03425821164886    2.23489029443420
O           1.54270499366468    0.41135281804493    1.55590339664030
H           0.64457916359226    0.52729516499234    1.90812570042841
H           1.60964360670775    1.03387442720162    0.81464831911069
O           1.29574074455409   -1.64293037896591    0.01241961310560
H           2.16551695937052   -1.91770018414166   -0.28578634617742
H           1.44159034561925   -0.91726617187550    0.69840422075564
H           0.52334485023960   -0.99309162298320   -1.10414495569652
