    19
        -40.92122942
S          -0.13850060895743   -0.21436388075490    1.10391793117293
O           0.39611646235017   -1.29851429574014    1.86403740926783
O          -1.00340495084206   -0.60912062933897    0.01584316456657
O          -0.84973103142871    0.77186629984382    2.02072396799414
O           1.00850661676739    0.64902951375475    0.51017832971543
H           1.55581356728844    0.06777037313877   -0.11106165437607
O           0.57328739273839   -2.89986042073309   -0.29029087730861
H          -0.28042882977675   -2.62108495761782   -0.63805120385075
H           0.55977696873809   -2.61699213832040    0.64071110946979
O           2.23380819443366   -0.99567590581462   -1.00973308994199
H           1.66078091962194   -1.79722058333143   -0.87182230152503
H           3.10485998008220   -1.22854961679902   -0.67987187033608
O          -0.91477501358058    1.44099917347984   -1.66575857331150
H          -1.02128105250998    0.58549206886405   -1.20223082102509
H           0.02034937397729    1.52248711441724   -1.86625884197558
O          -1.68635327724267    2.65931451346102    0.53612235189426
H          -1.39796500992077    2.35063581352330   -0.36190037595507
H          -2.64659765085557    2.65865931097197    0.52782918494597
H          -1.17426205088678    1.57512825698636    1.47761613057133
