    19
        -40.92122936
S           0.22185784580608    0.23610768291136   -1.08562852248282
O           1.12657395352522   -0.31543300752474   -0.10324658402740
O           0.63916183368314    1.48054054991725   -1.64801161036137
O          -0.04997684724527   -0.77657023388171   -2.18986988735802
O          -1.17279830702310    0.38389213436792   -0.41723135187693
H          -1.09725242781286    1.05969339671377    0.33169554040621
O          -0.74750183276688    2.10396721849513    1.42048325937489
H           0.22655312635655    2.24972416952099    1.27970485016880
H          -1.17313966275407    2.94675902273715    1.24629287309721
O          -0.39881666315933   -1.91599507671921    1.36267286997055
H          -1.08545658627843   -1.32963938760068    1.68827814820327
H           0.29137630073401   -1.34005695294760    0.97526512344309
O           1.75799863629965    2.30210078970806    0.65630490885799
H           1.53331750955412    2.26571608550027   -0.28985308155043
H           2.13860256685921    1.43794535330744    0.84570396989359
O          -0.83620551493218   -2.90264819759672   -1.03785126749126
H          -0.18729103556942   -3.59779998370379   -1.17124660692836
H          -0.77850869190288   -2.64508602440915   -0.08115882324615
H          -0.40849420335993   -1.64321754878944   -1.78230381808723
