    19
        -40.91892660
S           0.01810092083986    0.95190138348455   -1.07172189135630
O           1.17092183001073    1.79883638585427   -0.85356097470996
O           0.41840545407046   -0.44782931957761   -1.30875394837510
O          -0.99239648539910    1.03359481020487   -0.04634174483025
O          -0.65936336872765    1.42799372428068   -2.41895749564708
H           0.07171007318344    1.61597851057911   -3.00022105978261
O           2.09614912925413    0.93683128840959    1.41604607520437
H           3.04846867525020    1.05572518292672    1.40827252657932
H           1.75240312684108    1.38656691502605    0.60205679088557
O           1.00833149810653   -1.30995329987232    0.94142212899089
H           0.80529384058178   -1.06288381930681   -0.06040960617737
H           1.51977711195428   -0.48748014801638    1.27263263249059
O          -2.21623471773072   -1.27594028336549   -0.72874149130761
H          -2.03002920638505   -0.32446324235278   -0.66291723602395
H          -1.52395035149793   -1.62050511498080   -1.30057227619181
O          -1.32781691401367   -0.99509696953543    1.77597180816124
H          -1.36796401365161   -0.03980769664037    1.60904101970410
H          -1.83855610516843   -1.37509748671066    1.02571025878170
H           0.04674951247787   -1.26837081040566    1.40104447360498
