    19
        -40.91469046
S          -0.58295979207764   -0.04120444121993    1.24907751776573
O          -1.43391060909381   -0.24263086388555    0.09987884744020
O          -0.35862015317049   -1.17203107938645    2.07912422204651
O           0.78015839894733    0.50551828418530    0.74591174015277
O          -1.14058829461031    1.13988311479926    2.07150673255166
H          -1.46662618605778    1.80504234900187    1.40955232893471
O          -2.01921080887388    2.33490153576782   -0.05699830442548
H          -2.95413290619129    2.54420587044703   -0.12530174861724
H          -1.90792193754569    1.42198196328353   -0.38073747841704
O           0.26073123504809   -1.85122243260864   -1.37463793648776
H          -0.53692356147986   -1.50570607593928   -0.94772206886513
H           0.58782260421182   -1.11126097966015   -1.91685721805603
O           1.24386067668549    0.62768160193055   -2.05288947727667
H           2.18891157217532    0.74309077667846   -2.16957939441520
H           1.04291893733914    0.88320886836979   -1.14263072619056
O           1.95172096890786   -1.69335438315049    0.61668599532786
H           1.43124658487533   -1.96155655310096   -0.19045510694217
H           1.41242271526074   -0.32886165923685    0.71827479789446
H           1.50110055572091   -2.09768589635130    1.36779725773955
