    19
        -40.92343653
S          -1.44653185232911   -0.80990041758662    0.31047408648899
O          -1.74885191051731   -0.30052638778863   -1.01026038032470
O          -0.60989516123338   -2.00944601110854    0.25463178877792
O          -0.87532194519455    0.20423515057885    1.18245282311146
O          -2.80563299198041   -1.24933497201544    0.97531161082832
H          -3.12652228215050   -1.91518794171277    0.37520315000813
O           1.76693919183449    0.31012327376782    1.54241544557307
H           0.80332712707589    0.21364126954405    1.69172788477595
H           1.88408417965577    1.21860879171272    1.24339671678512
O           0.26463311697519    2.25967935271281   -0.05201676872931
H          -0.32096186867667    2.99733566635295   -0.22804371967394
H          -0.27230427492881    1.59041261604253    0.42711769360764
O           0.58247422954754    0.40215598051789   -1.96547586059974
H          -0.35122239051921    0.11140848234159   -1.83180505979995
H           0.64147135768292    1.23564457271682   -1.45307345877670
O           1.65154206585409   -1.26496987747131   -0.45360986413354
H           0.75984170441180   -1.72916624423591   -0.16665462724774
H           1.31595048947120   -0.57977364045098   -1.20322971248496
H           1.88698122502157   -0.68493969392151    0.36143825181872
