    19
        -40.92174075
S           0.88821961302914    0.06385661915749   -0.10195277125150
O           0.91318041595319   -1.31720071728327    0.33163687886324
O           0.50842549453972    1.00099084198615    0.91413481832909
O           2.28993456408929    0.44001397281351   -0.62906917331265
O           0.00046966274847    0.21204419920504   -1.32389094683344
H          -1.05822947315310    0.23114697106434   -1.07609198380579
O          -2.34855832467715    0.29329620712009   -0.56230177164479
H          -2.27829253724228   -0.33245716916100    0.19669967689320
H          -2.35877073639709    1.18910984377367   -0.15250206553416
O          -1.49411298797401   -1.07838857211707    1.54561566935569
H          -1.28882454478722   -0.40713539521318    2.20172020646767
H          -0.63845108774284   -1.37975287143276    1.19807839176504
O          -1.69839957639199    2.52985719566425    0.72107710026843
H          -0.85409412627105    2.08297291207237    0.92123363835398
H          -1.47357936740809    3.35450288333262    0.28705750449307
O           2.75610815286636   -1.97798506551389   -1.45041244053826
H           2.00523089420762   -2.10837876444446   -0.84203769129588
H           2.62086303671650   -0.36114834953511   -1.11176179472920
H           3.50888093789831   -2.43534475148721   -1.06723326584864
