    19
        -40.92079065
S          -0.20943765321869    1.07636273458497    1.00148270728517
O          -0.81189613312805    1.34696437611158   -0.30511067340132
O          -1.17506550140601    0.63527180201195    1.97475671578432
O           0.95105343908409    0.20582023931069    0.87264433139732
O           0.36846368864009    2.45935784460413    1.50979062552560
H          -0.41294491295503    2.95729719577471    1.72865971254483
O          -2.22548471927112   -1.48318490015578    0.79307241115520
H          -1.93286164101246   -0.66001170279022    1.24087357805333
H          -2.63899708761792   -2.02239646167205    1.46995178260480
O           0.06570493399761   -1.94759936522736   -0.42535137728676
H           0.53648493969450   -1.36979186852599    0.20895680511940
H          -0.85509509646054   -1.98052506516280   -0.07434806587462
O           2.40891748942455    0.58536810122679   -1.27421588184024
H           3.15099888274770   -0.02180640863718   -1.24429205115089
H           1.99738720374891    0.57077987185317   -0.37791493297780
O           0.08587987401527   -0.10171590202661   -2.10014861992802
H           0.03104953526427   -1.00362409836279   -1.53391106719186
H          -0.39146773173672    0.57239172824554   -1.44546781016354
H           1.05731048017513    0.18104185883917   -2.01942819964864
