    19
        -40.92246912
S          -0.37098407595601   -0.65620207528208    0.75904528847913
O          -1.52570626644460   -0.37084714800222   -0.03774845562642
O           0.46532208577966   -1.72645778192589    0.26763673485152
O           0.48156862278129    0.59710029011063    0.94001606481773
O          -0.81554953592643   -0.97346306670432    2.20350749565226
H           0.02631716203517   -1.21614135028390    2.66452420467823
O           0.47609157050424   -0.75855046964828   -2.25260834037009
H          -0.44180695447866   -0.86484664021585   -2.51467466076039
H           0.58375463808537   -1.28140181555647   -1.43960909094399
O          -1.91408233309428    1.94311109717889   -1.35064511603254
H          -2.43747313310974    2.53359767873861   -0.80635375630322
H          -1.94469239314282    1.06818772263940   -0.91890432907349
O           1.69359847188895   -1.48831480098744    2.64973322488196
H           1.61166383301890   -1.85061558786476    1.75251432903383
H           2.14590412640466   -0.64447553853451    2.56306375266206
O           0.72223389858958    1.68389901322089   -1.25825381553468
H           0.80162955432977    0.86680436314002   -1.80786749208335
H          -0.19985295234392    2.00112238938949   -1.40920749513783
H           0.64206367103140    1.13749371057559   -0.00416856325370
