    19
        -40.92136407
S           0.73643885906869   -0.69565798244778   -0.94647351076836
O           1.00541695819083   -0.84175334342881    0.49507711127517
O           0.24763091725722   -1.91636244023471   -1.53792928521625
O          -0.09098578064877    0.46202072033739   -1.20053357339160
O           2.15160328993055   -0.39440288810771   -1.60046889787802
H           2.49316380349539   -1.25503902800209   -1.82610268241366
O          -2.16229731972386   -1.41321480407493   -0.59838171979538
H          -2.43303632317892   -0.70067156294181   -1.18407862658688
H          -1.33541187878311   -1.77237064068685   -0.99317308332295
O          -0.92586684822102    1.88952081080524    0.83203217042994
H          -0.02538030423123    2.09438343556139    1.16779265027834
H          -0.74546264124628    1.57578195104096   -0.08358016265738
O           1.71771817503436    1.67616704602226    1.09457059975099
H           2.22689862260289    2.00074438800738    0.34990425784845
H           1.61347457443836    0.71641760853506    0.95234628231730
O          -1.22621965228937   -0.45556471758746    1.57381701380602
H          -1.20954821768142    0.62077339586314    1.37678854246671
H          -1.77074796437615   -0.87395021429264    0.81421429582487
H          -0.26738827957513   -0.71682172440188    1.31417862804743
