    19
        -40.91892668
S           0.73499434431546    0.68245823650138    1.02540294352309
O          -0.08229919987743   -0.50082729659780    1.35337390613112
O           2.12547849943666    0.32652424543292    0.84115652724981
O           0.15338050569664    1.42556073483685   -0.06480895298761
O           0.65938047897463    1.61137206996482    2.30285909618520
H           1.27120086376579    1.21944700713308    2.91908591625047
O          -2.40701432877782    0.93378672407610    0.64006082255700
H          -1.55645235719446    1.39377898260851    0.54306884670259
H          -2.23305234546142    0.23045666113843    1.27244142672545
O           2.07340669908517   -1.11638125718187   -1.31849879532032
H           2.19246156785405   -0.49978856310372   -0.55115677129390
H           2.77475758328735   -1.76817792740195   -1.25249335430151
O          -0.35087649411088   -1.68337916734089   -0.81034448963660
H           0.61009621805668   -1.57474392218907   -1.14573746453516
H          -0.29764158523726   -1.28916311801304    0.16369117641623
O          -1.60546126992408    0.23481618394823   -1.81126244718507
H          -0.90082270860152    0.89188244042293   -1.69502772223505
H          -0.93336031269279   -0.95976062345483   -1.33369849655096
H          -2.22817616864173    0.44213857921303   -1.07811213767747
