    19
        -40.91965956
S           1.47181362974009    0.77489690531361    0.40742110876085
O           1.65854207309221    0.66415685715920   -1.04760705818488
O           0.52253979826591    1.82986396774187    0.72619888358205
O           1.13181010165311   -0.49473807588734    1.00066903787372
O           2.86746699096141    1.21331767092706    0.98883950365490
H           3.03236141779915    2.04126042593851    0.54820875361263
O          -1.52724425102745   -1.03838945358831    1.50101304009882
H          -0.61335514783902   -0.76041176655158    1.67642406100006
H          -1.95172135451253   -0.28414966813502    1.07615248642335
O          -0.23421224866601   -2.43028309770955   -0.33320428908976
H          -0.92654906061112   -2.19039587375724    0.32986917451566
H           0.58694269021300   -2.15847294122055    0.10932097005868
O          -1.71069297260857    1.14244902205276   -0.32178153349425
H          -0.88559620258584    1.47403792921082    0.13852554962236
H          -2.17024802841681    1.91997624482552   -0.64440768803147
O          -0.38668050131621   -0.45775223428435   -1.85236408241688
H          -0.35657675811035   -1.38216633470587   -1.30330267851822
H          -1.05240827621902    0.13077529538049   -1.37142853319173
H           0.54380808983422    0.00602513710516   -1.62854670698764
