    19
        -40.92174060
S          -0.83045448910688    0.31679657687589   -0.11655259755878
O           0.04565500785201    0.09939585513303   -1.33656968303785
O          -1.26040338988934   -0.95642679250201    0.42191367238861
O          -0.17577819764034    1.17341204355849    0.82831831273798
O          -2.06301757129720    1.05227818346310   -0.68604205755343
H          -2.62336084237452    0.35186710185889   -1.10994360201663
O           2.38422292799699    1.95483963176830    0.54559073697322
H           1.44722256391161    1.79661147725201    0.76829697272010
H           2.41170373323846    2.77696635326194    0.05333761732727
O          -3.23803860716651   -1.17254187962678   -1.32531405562178
H          -4.08819604014224   -1.35409338407942   -0.91669528570042
H          -2.55286560444935   -1.47370863621383   -0.70025954086329
O           1.12440133293444   -1.35077316287193    1.64012004459979
H           1.13593894564138   -0.59753040252066    2.23636871359022
H           0.21362529845650   -1.41157553204119    1.30781490756728
O           2.32194010533341   -0.46403561499314   -0.55829648248890
H           1.06524565992504   -0.17813317656451   -1.07953317390451
H           2.60432373568872    0.41647078745014   -0.21877806996070
H           2.07783541108306   -0.97981939921487    0.24622358081127
