    19
        -40.91923795
S          -0.18056380836523   -0.78218230740156   -0.55391202121852
O           0.91899872708574    0.32524693169724   -0.43353627446016
O          -1.17388014425820   -0.53034342190003    0.46196687577744
O          -0.64753656929699   -0.81304980011797   -1.89854172168339
O           0.59347274559221   -2.04949291604146   -0.19723810245718
H           0.57929328753063   -2.11557846935573    0.83135740052241
O          -2.34094317370309    1.47240316341231   -0.90991744189504
H          -2.93824182985034    1.00770137109045   -1.50063602190124
H          -2.03814054031311    0.80773105946302   -0.26557293953088
O           2.04316180115908    0.24045801052753    2.09716429092346
H           2.99389433725393    0.14488671911377    2.01373605094023
H           1.70245870112054    0.44506550017371    1.21233679644363
O           0.36999797892721   -1.84254779058326    2.30367082972010
H          -0.48113418536219   -1.39816547304928    2.18698167174735
H           1.02127384190884   -1.12760383931527    2.47381231997980
O          -0.02880880531179    1.91070600617705   -2.14578324447168
H          -0.13716047952187    1.26147227977679   -2.84966721344247
H          -0.91745827054357    1.98262150337023   -1.72055928390810
H           0.66131639595815    1.06067145298602   -1.10566196107628
