    19
        -40.92079124
S          -0.67628135940504   -0.94476710360269    0.92572473114120
O           0.37350821574817   -1.55428325906943    0.10698039070900
O          -0.24126139893842   -0.67776548062522    2.27240218268045
O          -1.26869821138909    0.20119857861975    0.24990103120094
O          -1.83763193245356   -2.01652562087945    1.01164224934917
H          -1.46799558265337   -2.69766674514232    1.56480336033286
O           1.87354780358628    0.85843789844796    1.88174972409436
H           2.04197259377217    1.33955705023987    2.69417995846167
H           1.15056295451897    0.22566595280695    2.08380596773385
O          -1.49344069106164   -0.01818774354499   -2.35409122358582
H          -1.90962934614667    0.77933140315124   -2.68729688657809
H          -1.60485745410661   -0.00502411729028   -1.37410601912062
O           0.78210221280657    1.80547823261080   -0.32257836406954
H           1.35942991962411    1.61348377929281    0.45341687521655
H          -0.09857872685690    1.48224233603903   -0.04383561273351
O           1.00939781858183   -0.16081559713529   -1.83727849323563
H           0.85129783096046   -0.85081320069635   -1.05620630820677
H           0.09631158770332   -0.13254166203645   -2.27954243070785
H           1.06024377533923    0.75299527796318   -1.28967115354923
