    19
        -40.90989150
S           0.38951890523905   -0.21607175001197   -0.57806062526524
O           1.33210985718773   -0.49105716750490   -1.60931257263460
O          -0.66880871597537    0.69659011241374   -0.93824216482752
O          -0.17862982646555   -1.51067480757936   -0.02443157366854
O           1.12227231062087    0.37984648595300    0.67679462934440
H           1.51179285956425    1.21931409232849    0.35265920409746
O           3.11226003398862   -1.75812072704242    0.15837122164150
H           2.66683387110457   -1.33489860165120    0.89487776582539
H           2.63032730538161   -1.49418375410164   -0.63378677034705
O           1.64625090538932    2.24812468720986   -1.08067170815468
H           0.72414111361170    2.20954264451871   -1.36010427019575
H           2.13679075053486    1.70316181063703   -1.70495383842033
O          -3.06550364948073    0.75256214524260    0.23089423655088
H          -3.18817663966829    1.64494925177554    0.56096112155674
H          -2.26809813548781    0.77584861876739   -0.33598980982320
O          -1.98546980435210   -1.13255461080173    1.70332976961165
H          -2.54356303303139   -1.91438944790250    1.71060645808316
H          -0.87139284258898   -1.36240544769457    0.72517293644485
H          -2.50265526560669   -0.41558355459466    1.25188599021019
