    19
        -40.92218952
S          -0.19631013113791    0.26111559352994    1.11065176374532
O           0.30011879558758   -1.10064689365787    0.94020154543523
O           0.85562294898950    1.24706914996755    0.86270570797930
O          -1.36154837484893    0.50272892072895    0.26580566613120
O          -0.62567963933566    0.44109890057880    2.59606113024246
H          -1.32285405690497   -0.24028889816992    2.69466348384343
O           1.64372081599837    1.08578419029058   -1.47101316761942
H           1.85358833457273    0.07239500494618   -1.45853390859546
H           1.40463543321730    1.26488754789444   -0.45074499898024
O           1.91244659223311   -1.39193216562891   -1.06946297814959
H           1.26638227100523   -1.39131112591300   -0.31265824646490
H           2.74476180758299   -1.70374181467045   -0.70769379501935
O          -2.23031171968993   -1.52091235873867    1.88912952478737
H          -2.48246735398241   -0.94149985943663    1.15801677859237
H          -1.42446383040212   -1.96121175983851    1.58804520092724
O          -0.78147178704848    1.21617292515860   -2.15858524088720
H           0.71479795714277    1.17563603380088   -1.91879382825119
H          -1.10252445824636    0.89966304425779   -1.27149108563268
H          -1.16844360472910    2.08499355489903   -2.28630354208684
