    19
        -40.91893408
S          -0.35685706032074   -0.79923644723323   -1.49743721415673
O          -0.83699710109655   -2.10814385730997   -1.13286408855383
O          -1.18579107266103    0.30512371685295   -1.05540202051512
O           1.04635640745718   -0.59526062209074   -1.10696437121124
O          -0.36690314484423   -0.74318514883141   -3.08362723442116
H          -0.17321911520465   -1.64253884040076   -3.32985917603243
O          -1.34379634128121   -1.18113504474167    1.28498957050580
H          -1.85268963654294   -0.42825537345435    0.96935350827134
H          -1.17301341871819   -1.70879910651014    0.47834903055257
O           0.83383135592928   -0.38427656881557    2.50744487827726
H          -0.03453123538977   -0.69348791860866    2.13196500730442
H           1.36270392589979   -1.17334890516473    2.64059894546361
O          -0.33383503110291    2.51827569396010   -0.01249052553020
H          -0.24326881883612    3.16828906179863   -0.71166464453762
H          -0.77510131424720    1.72900669896503   -0.42086815087347
O           1.65336127860561    1.06490145851588    0.60445324200364
H           1.38468366535097    0.54219940040294    1.45788159977900
H           1.46703648266813    0.35675671068122   -0.17591764412291
H           0.92803017432147    1.77311509195044    0.45205928778168
