    19
        -40.92218955
S           0.48479074976870    1.04887501490281    0.07122692316366
O           1.18994762344693    0.58984092287300   -1.12537811558014
O          -0.95566340254209    1.11641004976172   -0.15318944464211
O           0.79555812768586    0.21166255484532    1.22558819210074
O           1.00106826509963    2.48863445371643    0.36036295571624
H           0.49555952685125    2.73312256151664    1.16332833265277
O          -1.90020808068653   -0.85284221265259   -1.54999393297788
H          -1.64224378042886   -0.08972537870173   -0.96566080845674
H          -2.29636112203023   -0.46514274220054   -2.33336797674323
O           0.47228158358915   -1.69794204441220   -1.71458429239202
H           0.87077339440850   -0.72214723939667   -1.58117503971417
H          -0.54453330039166   -1.50401293830034   -1.73532845653926
O          -0.70493718664161    2.20597599202034    2.34375402676065
H          -0.22379524333760    1.38878565474376    2.52998968324033
H          -1.34026046587240    1.96662571934991    1.65608383631286
O           0.94508342187069   -2.31979772598837    0.68548812617630
H           0.65893153076456   -2.12460126586628   -0.78996702322660
H           1.83614409791473   -2.59405743419004    0.91301199415014
H           0.85786425049120   -1.37966394198785    0.99981103000843
