    19
        -40.92071397
S          -1.11095890931046    0.93124906847968   -0.30858673860277
O          -0.80214321037056    0.55604064943844    1.05204604049726
O          -0.75262112319091    2.29093279384263   -0.64089768640102
O          -0.52326807195564   -0.03491604018433   -1.25756219323431
O          -2.67576253433604    0.81390713545286   -0.49340895257697
H          -2.87204556720638    1.44519819142226   -1.17983550817305
O          -0.72758580482507   -2.59327895160048   -0.47769599051321
H          -0.58657732261172   -3.16633654760291   -1.23274949123649
H          -0.80529359400903   -1.68343154979392   -0.82761656595359
O           0.75824664389792   -1.51839361572585    1.45391800273900
H           0.26884632633649   -2.19195069545704    0.93555623329747
H           0.09692717628758   -0.79909161722321    1.58008232897671
O           1.54934741581003    2.11017205386182    0.59294078438292
H           0.74439995389117    2.36290802690020    0.08187157892609
H           1.24924919285324    2.01974392647245    1.50214677541091
O           1.82362170245695   -0.22612267827755   -0.36760281562710
H           1.90232512597861    0.72482574216355    0.01965614149789
H           1.51228136902967   -0.86346352314393    0.47310932741459
H           0.95101123127266   -0.17799235900458   -0.90537127081472
