    19
        -40.92453853
S          -1.05015745992102    0.89911715615191   -0.64117708637629
O           0.19951243169628    1.62502961655117   -0.72748749693181
O          -1.02856105310847   -0.34402127726692   -1.40344719581639
O          -1.46071549700784    0.65423625700998    0.73718154469802
O          -2.15124117156639    1.82498383544365   -1.29330625787792
H          -2.96050396485256    1.32568115835008   -1.23231046056574
O          -0.83602335580304   -1.85664255574722    0.88533017316981
H          -1.19537975670456   -0.93694065691968    0.97094500652561
H          -1.03843430841304   -2.09461123800608   -0.02708862409966
O           1.55405766428608   -0.60214555047825   -1.56273161014280
H           0.56998879553113   -0.60858517841923   -1.66873252522360
H           1.78279859081434    0.33197128898472   -1.63297033327837
O           1.08519842556685    1.16039487995695    1.66934404926560
H           0.22988987310561    1.11751676639367    2.11331269374576
H           0.86364210709640    1.52302052471589    0.77666052533308
O           1.59145039107360   -1.18251846535020    0.88989419783926
H           0.63419773464328   -1.59543769894421    0.96893589703982
H           1.71188484431401   -1.01121776039248   -0.13583471310454
H           1.49839571925436   -0.22983109203900    1.31348222580313
