    19
        -40.92218941
S          -0.96812254274014    0.07482245906648    0.63012207341106
O          -1.06581375524019   -0.92199385915333   -0.43137548977470
O           0.21267518621442   -0.15489477499002    1.45636831768306
O          -0.98400267003472    1.43363374937401    0.08854554084673
O          -2.22827075947042   -0.05172862144997    1.53494974527724
H          -2.15827608749724   -0.97275290514432    1.86178164516102
O           2.38450614665573    0.89109245520541    0.50304262016089
H           2.70097930726454    1.51052953431456    1.16417188770027
H           1.61850541759059    0.41143217368889    0.91970910323281
O           0.29886032511198   -0.34271649661240   -2.55853207876161
H          -0.33258489511940   -0.28221094179506   -3.27862130235857
H          -0.21168796939446   -0.67603721276472   -1.77211623237413
O          -1.21200804801135   -2.46179623207393    1.82349239320914
H          -0.39631145385434   -2.00199492938876    2.06221274023775
H          -1.20898654197820   -2.48332952903687    0.85725643463555
O           0.96682860120485    1.78836129064553   -1.38246011447908
H           0.80561082315110    0.97044475443135   -1.99616365443563
H           0.09049242736913    1.77739717751178   -0.78145683064315
H           1.68760648874733    1.49174190816666   -0.70092678872668
