    19
        -40.92218957
S           0.38381178365167    0.79264377190999    0.75145223390676
O           0.54085451564897   -0.57021036530765    1.24940699084851
O           1.32751040732977    1.07746500242585   -0.32935767516224
O          -0.99254594806607    1.04227070728085    0.33544923459443
O           0.72950499676326    1.77645118775895    1.90706639654653
H           0.06946116249540    1.53479846559798    2.58973109890986
O           0.97585584181552   -2.32973996733819   -0.60462894761128
H           1.82839434985792   -2.72492247407366   -0.40992094346855
H           0.76258658297163   -1.74063977310616    0.16846111331754
O          -1.28284252608326    0.47776535882223    2.99696599993709
H          -0.78399925075809   -0.31756435796442    2.76746216463380
H          -1.76348894064039    0.70830895230365    2.19095520193929
O           0.90259769860636   -0.41599489124486   -2.24874416651132
H           1.19582693023808    0.28491546813632   -1.50575818993419
H           0.94932195823882   -1.30593842555573   -1.72200313275621
O          -1.51709193195404    0.28382820740530   -2.08755752498988
H          -0.10493984612268   -0.20040273317291   -2.34897699586374
H          -1.42764942676448    0.55780130371436   -1.13505881924025
H          -1.79316836722991    1.06916457239133   -2.56494402909518
