    19
        -40.91966070
S          -0.31023773272039   -0.77627414954089    1.49433716771993
O           0.95821263677474   -0.12815527016399    1.78970215231441
O          -1.28847098596612    0.11841048813233    0.92744478775997
O          -0.10427679148228   -1.96340013814822    0.65047097543077
O          -0.88613504355218   -1.30964556350214    2.85887151800287
H          -0.18837316818461   -1.87261043803512    3.17989220869649
O          -0.38764384086816    2.28529076740339   -0.52212597343141
H           0.55697062923615    2.09783915746764   -0.56812298747514
H          -0.71856305902526    1.78130402818237    0.23932444663891
O           1.93131138771462    0.63277428727435   -0.45359400760645
H           1.61364021320898    0.39119399614137    0.46476860480133
H           2.88558163712510    0.53764887444697   -0.44243063589300
O          -1.70034094098322    0.35251493329291   -1.75230754971364
H          -1.30898187041881    1.24367712450874   -1.58074850715309
H          -2.06291307972861    0.10871255999942   -0.88471120936832
O           0.35256393286008   -1.05668784518752   -1.59819553230291
H           0.14620647143715   -1.56714026591590   -0.68799801051277
H          -0.54224065443432   -0.49254927106469   -1.79064711042455
H           1.05369022903024   -0.38290326529911   -1.32393033748903
