    19
        -40.90738842
S          -0.45616608748228    0.07435314798849   -0.31010370683822
O          -0.70828540262735    1.48537749046664   -0.26524870704371
O           0.87029152521900   -0.27238578928073   -0.73819279949745
O          -0.77586784591123   -0.55476935786739    1.05024345831830
O          -1.49961692301029   -0.63721099405439   -1.22252634628064
H          -1.36120803202724   -0.23554709363828   -2.10957429246705
O          -0.77659991755535   -3.24259672581261    0.01945494893263
H          -1.29740049920340   -3.00964953369423   -0.75160461254388
H          -0.76101004161476   -2.45641509930534    0.57188732288510
O           2.30450235366616    0.62547483634541    1.36785997289841
H           1.94070599943543    0.30708916050815    0.52167394447130
H           2.82735533919580   -0.09589627054742    1.72528628493405
O          -0.39609716061321    0.94146189829746   -2.98581075669548
H           0.50386428533496    0.62062635278099   -2.86592584195318
H          -0.50055322661159    1.68661032482122   -2.38183550450868
O          -0.00233257295189    1.34980526586773    2.46969812698683
H           0.95085364374172    1.21370336034510    2.25477456342853
H          -0.31245371089312    2.03989998701451    1.87069704308968
H          -0.54998170414205    0.16006902293335    1.77924689048639
