    19
        -40.92159004
S           0.77700089297845    0.54438723147011   -1.13088326724959
O           0.54254659390584    1.90096673546955   -1.54496811586644
O           1.23658247401253    0.38780374123522    0.24092717315462
O          -0.37578033842287   -0.32756812329479   -1.39183558457549
O           1.96007919720740   -0.01433352678591   -2.02501605921131
H           1.82618246093060    0.39770456140290   -2.87312595890337
O          -1.81599361605704    1.92609988155910   -0.30933410313480
H          -0.97344559344754    2.10676452785324   -0.77026170062749
H          -2.32165247591544    1.37513427874406   -0.91139360082101
O          -0.92333532844391    0.59901420161255    1.79264244898481
H          -1.43432463449378    1.19979019710683    1.19976009963339
H          -0.00108946157000    0.71329746206246    1.48922571662992
O           1.40111071674905   -2.08030618817611    1.09899946029695
H           1.77638338137185   -2.07809444259836    1.98189040923192
H           1.55086997378896   -1.17959847725245    0.72603753941604
O          -1.06398611823885   -1.59456901806060    0.62270841161344
H          -1.13902025159020   -0.72009161215095    1.23778386405212
H          -0.85136939592215   -1.15104633807581   -0.31020308002805
H          -0.17075849684588   -2.00535509212957    0.87704632743553
