    19
        -40.92079116
S           0.47262912070135    1.33769775318092    0.44267745326134
O           0.48325398508839    0.80432548377185   -0.91246037006201
O          -0.66914478068440    0.82369729525120    1.20175442375619
O           1.71887658531223    1.18540558952857    1.14818868085332
O           0.21706135756016    2.89019375866044    0.27108012177742
H           0.34078932113698    3.23195832812510    1.15109101564133
O           0.43645393745754   -1.84464522074229   -0.61712770452637
H           0.65283367804254   -0.94649241129931   -0.94021921043712
H           0.95269314743705   -1.92448605833564    0.21903903348151
O           1.79222267825552   -1.41701154509301    1.60286784883395
H           2.70292141812534   -1.65920252785037    1.78121743408367
H           1.77831798983215   -0.43753816941263    1.53677532745890
O          -1.87426379660444    0.46547789767117   -2.01067763438901
H          -0.99219336196848    0.77577348611888   -1.69643309967337
H          -1.74465300451537    0.12813791854665   -2.89935674185969
O          -1.82498432954091   -1.04186954296861    0.05699794403745
H          -1.43327380275449   -0.27172783062611    0.66078047305368
H          -2.07682767015836   -0.53782984103738   -0.78741101667280
H          -0.93271245277274   -1.56186438348577   -0.20878398864411
