    19
        -40.92123225
S           0.88992719747493    0.00970241941727    0.82201751713208
O          -0.23491301482742    0.65234808967007    1.47163854501316
O           0.38436916005079   -1.27434072846002    0.16484387052343
O           1.59915647623162    0.82410169834170   -0.11030092181677
O           1.86235133506208   -0.51746289394580    1.89760060119786
H           1.28441464120486   -1.03043312139682    2.51441828582775
O           1.21473446770782    0.78959135151941   -2.77424103743349
H           1.54939669737086    0.82698983755531   -1.85881414259503
H           1.00962066462922    1.69482077906492   -3.01782981838135
O          -1.81403442798190    1.44506722175164   -0.53888751043830
H          -1.24289097923702    1.30231238031819    0.24085443351432
H          -2.69689181719849    1.61398442767967   -0.20402334812950
O          -0.25313182584953   -1.57857725433087    2.98275741300281
H          -0.61214889030837   -0.73114557914237    2.67351405887710
H          -0.51126133106451   -2.23920344891846    2.33343301902460
O          -0.82572762896950   -0.62943085638964   -1.88674554446979
H          -0.09918725940366   -0.20975593345107   -2.41363393496090
H          -0.15275064125561   -1.07126256805235   -0.76511428408523
H          -1.35103282359915    0.12269417876888   -1.53148719183562
