    19
        -40.91971857
S          -0.88422917663472   -1.10265246662636    0.09109190813352
O          -0.79130617033983   -0.05355547250066    1.26050543253534
O           0.39593024372261   -1.73470012398695    0.01131197219377
O          -2.03315115453495   -1.92308972396501    0.28402401994762
O          -1.12728267025162   -0.21842106522440   -1.13817385794365
H          -0.28295114466797    0.34940773007865   -1.38543800883110
O           0.93385988499969    1.13509835316729   -1.58604189380179
H           1.09453231260556    1.56693294996279   -0.71063525443350
H           1.67259581769111    0.51351332416125   -1.66840846699922
O           1.52920036030268    1.56301427337849    0.95379962835284
H           2.23993528223337    0.92101677500813    0.81383775123974
H           0.80162099098100    1.07839511961200    1.36263269692581
O           2.75795518835635   -0.59121318293707   -0.39382093802983
H           3.46889608706337   -1.23288379828472   -0.42593589119810
H           1.93949498750864   -1.09681505270548   -0.21403604549578
O          -3.30672765738217    0.35311237449467    0.81825432777603
H          -3.42262021199895    0.78331038619569   -0.03334565847527
H          -3.26738855854877   -0.60266543254927    0.64010194351391
H          -1.71836441109183    0.29219502270307    1.32027634457629
