    19
        -40.91346210
S           0.43265198817613    1.15032609325111    1.63831584735307
O          -0.50590739424844    0.53798759597449    2.52601424261398
O           1.22235781056645    0.24475399829371    0.85020595093047
O          -0.24459105158158    2.18350619480898    0.75296987679362
O           1.42007722892802    2.03137911117548    2.48291273641911
H           0.89810350198861    2.48790215346253    3.13979438159746
O           0.06849340708066   -2.49200963479239   -1.86000063791353
H          -0.35245291357045   -2.34544039163624   -1.00102048026128
H          -0.62947703318675   -2.70975837995903   -2.48004777021451
O           1.14137470499922    0.03340329776027   -1.94694277774521
H           0.95163310835190   -0.91713877894955   -2.06208575713812
H           1.53639130101446    0.11650952274205   -1.06809104298824
O          -0.93404066117982   -1.33446345345224    0.49690171850633
H          -0.04103631402905   -0.97738491700680    0.65150413210783
H          -1.37353166661460   -1.25428534605307    1.34884181000202
O          -1.17400845643293    0.86249248774132   -1.11391977439619
H          -0.32780677565034    0.65368007541338   -1.61354504500840
H          -1.38935548915223    0.03450979285099   -0.64326348115622
H          -0.69887528550664    1.69403055821615   -0.09854393942811
