    19
        -40.92021774
S          -0.41282549868874    0.52043438657762    0.82926722129067
O          -1.04545759583393   -0.78809251606175    0.39307208878607
O           1.02223146810056    0.33823545377342    0.95938134660385
O          -0.80977019510157    1.59310859869454   -0.02673839870814
O          -1.00354370094033    0.75374714580216    2.23718224204251
H          -0.50561790906096    0.14678214521783    2.83934172732678
O           0.82767952832378   -0.70574919062658    3.37349852371597
H           1.20269302333695   -0.48896340201618    2.49867200541277
H           1.36398202826559   -0.25259796950007    4.02863489026486
O           1.98653589377285   -0.51920468335740   -1.39782356593750
H           2.65786123829537   -1.17587328988123   -1.20257202439773
H           1.74608785482838   -0.10304065197878   -0.54811088760650
O          -1.50710598952200    1.23301409523626   -2.59627180014466
H          -2.45253970879247    1.38744674422602   -2.64192268785524
H          -1.22005673161401    1.54862346089297   -1.71832402059686
O          -0.52564428931600   -1.14693878511154   -1.99088776909146
H          -0.91369819909588   -0.33614825242681   -2.40333301886920
H           0.44755420048119   -0.99355150053076   -1.97181908589038
H          -0.85836542728169   -1.01123179869096   -0.66124679638185
