    19
        -40.91971847
S          -1.22248931331786    0.46808938054860    0.54109849091988
O           0.08666615297002    1.33453268331219    0.65191972979009
O          -0.98463684904434   -0.72364308936848    1.29461908611100
O          -2.34920342878476    1.27079900979553    0.88247813093276
O          -1.29400079734091    0.15374151421723   -0.95825961926181
H          -0.53683450150366   -0.50529503119183   -1.25701544569872
O           0.60077793417202   -1.37204349428763   -1.55982726453604
H           0.54237767143357   -2.14469322741025   -0.97817744204278
H           1.38475881561581   -0.88034365278005   -1.20969693172902
O           0.95268097823088   -2.50787216844760    0.95475693520187
H           0.22255345482248   -1.89335650954937    1.17236970656597
H           0.88997221427734   -3.23182698015066    1.57943737868832
O           2.37231302408783   -0.24607225792454    0.04619334890669
H           2.25803565961131   -1.03462816658827    0.59588405525215
H           1.81176685951706    0.43815456079403    0.43223950753545
O          -1.23302701825639    3.12411962158832   -0.66896621101075
H          -0.16305244144391    2.17154255931672    0.18338664823550
H          -1.38122909830218    2.82207219759531   -1.56923915141648
H          -1.95742931676900    2.75672306053489   -0.13320096243439
