    19
        -40.92079084
S           0.21640255200432   -0.21947469627468   -1.45382944154723
O           1.16146975631337   -0.93232074144216   -0.59191150424228
O          -0.82467638973035   -1.07653961803517   -1.95939017913597
O          -0.26793783924574    0.99368389360518   -0.80994580678436
O           1.05716913709535    0.28287952502803   -2.69699442723049
H           1.26513811603937   -0.52163708715249   -3.16184237331038
O           1.48604419206157    2.26071123428600    0.67246577738879
H           1.06536094074798    3.04569492684393    1.02893065028601
H           0.88791097475717    1.91708016126981   -0.03257352222472
O          -1.27077537722390    0.18663139121101    1.52450133769837
H          -1.15139941183886    0.65519909543412    0.67360266954027
H          -1.60638211639863   -0.70178179130081    1.25872465684877
O          -1.88387313829453   -2.04305361515818    0.26034625067915
H          -1.47749936356578   -1.78356346790699   -0.59495035144899
H          -2.76290312487310   -2.36479725561506    0.05136076385864
O           1.20160927095522   -0.05610909176972    1.72285769859256
H           1.28592150750266   -0.53592167145028    0.78822727580085
H           1.47736874570211    0.89395945506102    1.49584218694509
H           0.14105156798889   -0.00064065663530    1.82457833828852
