    19
        -40.91971833
S           0.23963966340710   -0.98538045733491    0.98959204377372
O          -0.29080516273155   -1.75495418212211   -0.09252415305761
O          -0.78369023787484    0.18147246986344    1.25052883707024
O           0.52052740861638   -1.64975677581661    2.21842506356703
O           1.50307394104830   -0.23521430761861    0.55026431535340
H           1.38940901838106    0.20681232374509   -0.39218630347708
O          -0.90289017487173   -0.92044342097511   -2.53811655265839
H          -0.73129745473051   -1.31245574277075   -1.65785065873765
H          -1.23557993123352   -1.63076721299165   -3.08852123607478
O          -1.42557229001612    1.49815322112899   -1.18751061928134
H          -1.50256524300621    1.14681789927772   -0.29195078810573
H          -1.65318211490684    0.77199867829183   -1.78587691874840
O           1.08354180194700    0.82973886856345   -1.67927486320041
H           0.79530376851209    0.12856548477477   -2.28239849295201
H           0.25468626160716    1.34383826709447   -1.51237046713161
O           0.74135292173633    0.79600816976051    3.24680252962706
H           0.82428598926273   -0.17307120971738    3.27640640393228
H           1.58266198159733    1.13064181197326    2.92440933948286
H          -0.40890014673887    0.62799611488918    2.05215253061333
