    19
        -40.91855601
S          -0.81843613179605   -0.52648628538300    0.64197376431330
O          -1.14399426711937   -1.20878052840191   -0.68810575489883
O           0.62173029522760   -0.43583031388079    0.78422247068003
O          -1.51294380717097    0.70938344457901    0.78869473092906
O          -1.35082528494003   -1.54004538644255    1.67519992766533
H          -0.68933262490726   -2.27794631992420    1.68830637903524
O           1.39864552370433    1.46851783110001   -1.01943690697773
H           0.87219516677067    2.23657790963117   -0.72175134084650
H           1.34696387543636    0.82871770676494   -0.29119658684929
O           0.82263261643439   -2.95776081109128    1.54304728717159
H           1.30795566903966   -3.09020210756424    2.36120017592325
H           1.10189321113912   -2.09554190143798    1.18205472777485
O          -0.42924990032169    3.10990538700731    0.11126713610060
H          -0.35085426175320    3.61577618187308    0.92180954021545
H          -0.96102065388428    2.32441274797095    0.32934575994114
O          -0.19047880830714    0.14974871761635   -2.57524503211937
H           0.45040290430358    0.74696373178254   -2.07999876685315
H           0.34062075917702   -0.40370761003883   -3.15265184395703
H          -0.81590426097117   -0.65370239415276   -1.49873568719653
