    19
        -40.92135411
S           1.48074453613780    0.38757310465142    0.30496592551424
O           1.55720438315688    0.40514231826975   -1.15643577101788
O           0.89086033350106    1.59867523796015    0.83154726104968
O           0.83645795259815   -0.82253727815498    0.79048113286862
O           2.96900730626483    0.32643830374823    0.82613839091373
H           3.31731165439771    1.17540816398076    0.57188258016627
O          -1.57720906527237    1.47342799443165   -0.03854896234981
H          -1.85906334104810    0.82347059860823    0.64874813774199
H          -0.68981277306925    1.76253100603262    0.28078470030927
O          -1.54778641441288   -0.29866232925018    1.92195380328405
H          -0.66534452680597   -0.58929897413256    1.61938373231186
H          -1.41663378105345    0.10475598599245    2.78181935056860
O          -0.56693311033711   -2.17944313568341   -0.99500552976001
H          -0.04007059842463   -1.81463281813039   -0.24798700942984
H           0.00287069636771   -2.79919916040314   -1.45418561755122
O          -0.77968323046324    0.16459101385225   -1.98163095496946
H           0.22804287251924    0.33303334255998   -1.79342582348517
H          -0.88358370763467   -0.81136052041915   -1.71178584910457
H          -1.25637918643331    0.76008714605946   -1.19869950709211
