    19
        -40.91971844
S          -0.87438450576585    0.98938394216888   -0.51337888585902
O          -1.66231651748847   -0.20008841860043   -0.60768319654332
O           0.49174669612442    0.67736508611127   -1.22966204358480
O          -1.41386797252095    2.20107932331539   -1.03401673913320
O          -0.44591506157152    1.23955228594267    0.93779493164951
H          -0.11674074820611    0.36282275549634    1.40660805786743
O           0.38037841997187   -0.91055225317640    1.92499481352909
H           1.06156036770194   -1.19491027931209    1.26606237064660
H          -0.32494716561278   -1.56566774573151    1.81540100270508
O           1.57544741962117   -1.77038671962558   -0.26978275033642
H           1.36487051100034   -1.03208227172193   -0.85457195455647
H           0.83517541655827   -2.39053865602648   -0.33586963521638
O          -1.05549111553178   -2.62962662539831    0.27611438246082
H          -1.75662193429055   -3.26051437634781    0.10700643121210
H          -1.35363968113740   -1.77871787349442   -0.10486719961963
O           1.05643034058666    3.16163449579678   -0.78422742390566
H           0.95869532398220    1.55124549676575   -1.20396391470498
H           0.10190788782885    3.24421803679095   -0.95417920033909
H           1.17771231879122    3.30578379708900    0.15822095374821
