    19
        -40.92136355
S           1.07877138929963   -0.36489895799824   -0.79184114638508
O           1.17101691968371    0.75318463283198    0.16377473521786
O           1.94112405188580   -1.46326600043672   -0.43272844547129
O          -0.29968616807508   -0.73851960877009   -1.01506311526459
O           1.61747955211606    0.22250601258133   -2.16491748875022
H           2.55451863951829    0.05016775216884   -2.14110175704744
O          -2.18006639633173    0.52077084423622    0.30589564642319
H          -1.93728581235711    1.41173982897982   -0.03036470940570
H          -1.71370241551746   -0.07778707157247   -0.32143512470102
O          -0.68901238652609    2.39707405515103   -0.85847650796446
H          -0.62284545073408    2.32370680939239   -1.81210775897425
H           0.09461100045301    1.94096002929714   -0.49772312159044
O           0.17842930056491   -2.27703996730239    1.34790834952340
H           0.95090522872857   -2.10371831226425    0.76305355360868
H          -0.49839922994390   -2.64125432797347    0.77056560038946
O          -0.41689354243137    0.11707312216827    1.99920819181456
H           0.32283898187164    0.50011558047277    1.39853428503455
H          -1.30464554211650    0.31936180108573    1.39157209255805
H          -0.24715812007997   -0.89017623204413    1.92524674098306
