    19
        -40.91504906
S           0.33653689656044    0.16856790173895   -1.73361520859557
O           1.60587795325030   -0.37224481877026   -2.09583665383549
O          -0.55163940338264   -0.94283257593744   -1.18213649666592
O           0.29636351976001    1.30114011770013   -0.86238747721626
O          -0.39414718730749    0.60045701196407   -3.06615613802408
H          -0.09733598676762    0.02525429397179   -3.76877511382147
O           1.16090703389227    0.72735004006681    1.71443602202966
H           0.97471613189923    1.18556350868043    0.88260686396787
H           1.60693527266077   -0.09707192103080    1.44627302098772
O          -1.24012824962077   -0.00638580037797    2.50875173042750
H          -1.50700447821006    0.52844852476014    3.25777771767502
H          -0.29659127185538    0.23624732993921    2.31365990474032
O           1.89558246041659   -1.52081893586490    0.36422254141454
H           2.04078543960837   -1.19628393132048   -0.53636376391185
H           1.15197920730807   -2.12613465198514    0.31676649576518
O          -2.12681055573396    0.45803285745300    0.10484633968257
H          -1.61265561232886    1.25303782992438   -0.09195155127803
H          -1.32277528741648   -0.45392480948079   -0.63063453808715
H          -1.92059590270890    0.23159804856753    1.05851629474839
