    19
        -40.91855627
S           0.10965349710986   -0.26427636364042   -1.12843204579633
O           1.55000115991669    0.19776937407659   -0.89849132430166
O          -0.32300011053317   -1.04335348426892    0.01542984136979
O          -0.74753479725804    0.82147963889504   -1.47152867140830
O           0.25188060779787   -1.20812144545838   -2.33963073117858
H           0.64626460430258   -2.04376699418092   -1.98079565363931
O          -2.23681192214560    2.17410214437125    0.35892748261139
H          -3.15601558282492    2.01142348965342    0.14058701233618
H          -1.71369077594014    1.82757665964185   -0.38514347097289
O           0.94038485099508   -3.20463258825698   -0.82652097932781
H           0.51031547254013   -2.59385025527533   -0.19900991970591
H           0.39298321802548   -3.99254140001463   -0.87123690078913
O          -0.63957360835994    0.77554091558233    2.03413090197667
H          -0.65277464688503   -0.01306355808652    1.46820368066984
H          -1.29487852390305    1.38390958867933    1.63892118532464
O           1.64348970166197    1.62549854028856    1.16801830790071
H           2.32964730412110    1.31312279704611    1.76246622310532
H           1.62625297929426    0.83502990446490   -0.08565362243385
H           0.76340658208597    1.39815306648174    1.59975870427239
