    19
        -40.92161555
S          -0.87013201464458   -0.24864909199577    0.56315384389815
O          -0.84120502526856    0.66395932026917   -0.66272711455833
O          -0.79106867603053   -1.62166346736877    0.12098978798251
O           0.12656570460298    0.13872875130043    1.51499285098292
O          -2.27066276740239    0.02073792257705    1.15169410205018
H          -2.89361161717505   -0.32462584583676    0.46329046184337
O           1.52435419061281    0.93778936725824   -1.33586080258371
H           0.16242600840850    0.83492671568888   -1.02862958542606
H           1.83690643650148    1.53996694293802   -0.62882637970540
O           1.92231278903797    2.09593715757641    1.04171367633298
H           1.23436630165236    1.48013445618010    1.35453642023353
H           2.57392024873768    2.16281197358132    1.74141145289847
O          -3.18203521695088   -1.09513346570132   -1.01168926654733
H          -2.40866776962011   -1.66101280277635   -0.85685897228517
H          -2.94270696489832   -0.49279870184172   -1.72184900018537
O           1.88793556761896   -1.44081368109934   -0.18859503100953
H           0.96579851315019   -1.74714870257160   -0.16501413334800
H           1.83968787762370    0.03901885046124   -1.08009162187782
H           2.12581642404570   -1.28216568864004    0.72835931130196
