    19
        -40.91898071
S           0.92199137697084    1.32989644003115    0.21620154727954
O           0.71981291377519    0.75729493237195   -1.12619447247839
O           0.14879606884867    2.52600018758575    0.42425804922176
O           0.72285651934915    0.30712153740525    1.23062989789808
O           2.45170117883842    1.73262164374782    0.28207854863546
H           2.48887476138870    2.63014279818929   -0.03772758723693
O          -1.85480043622623    0.92927093502342    1.16855445061389
H          -1.05714824571640    0.52200102023171    1.55478448148342
H          -1.55449907716709    1.83630453390699    0.98767384413077
O          -0.94682631131578   -2.51085311800446   -0.48394824866398
H           0.04039425127950   -2.37228165739462   -0.40805833969324
H          -1.25019643044117   -2.78204921066847    0.38491248419323
O           1.53740451554970   -1.76888465146813   -0.18966806673353
H           1.35975802706046   -1.07575825553123    0.47960553739204
H           1.77558684255427   -1.28061994561274   -0.98368825860946
O          -1.58661310570204   -0.15021022088620   -1.11028382869409
H          -0.62181958912209    0.25548111639000   -1.25754250791159
H          -1.41710010512122   -1.16228800271594   -0.91753448768791
H          -1.87817313480393    0.27680991739615   -0.21405304318531
