    19
        -40.92343662
S           1.55398198894717   -0.61886638679005    0.21618229770103
O           1.10422927810581   -0.85576869932356    1.58871504097072
O           1.03694803461215   -1.61247193867832   -0.70052779135893
O           1.26987949872024    0.74048075961139   -0.21580784125194
O           3.12323133040588   -0.75712783407361    0.23550062522222
H           3.25119767998603   -1.65105572690730    0.53728797221805
O          -0.79264159111550    2.06534753896056    0.83869906311208
H          -1.24923941126190    2.23972979562427    0.00825161754691
H           0.11154600019058    1.79086921708201    0.57920719958163
O          -1.55231147870606   -1.24525643392531   -0.63987538807111
H          -1.54305250145252   -0.45037738511436   -1.21318107398291
H          -0.63612498385271   -1.60289890713450   -0.72173357325858
O          -0.77233820038690    0.99950339341778   -1.89243573445663
H           0.06942469299159    0.91731760085752   -1.39207201510351
H          -0.53910880427359    0.94421546050504   -2.82008805791988
O          -1.31353568061168   -0.29038107938878    1.64941068477189
H          -1.24373314868608    0.71522868864978    1.44887842669744
H          -1.56203092508196   -0.75032083808562    0.71674914034763
H          -0.31632177848462   -0.57816722531792    1.77683940721341
