    19
        -40.92161565
S          -0.61220367873428    0.32597719222305   -0.81021560101999
O          -0.98710800341035    1.51448309890932   -0.07950912589779
O           0.73108739472294    0.31854576620612   -1.30504847875053
O          -0.87939515860966   -0.89540021789998    0.06943521903033
O          -1.59066507535997    0.11604887535437   -1.98454737219335
H          -2.48700885475021    0.19253864011574   -1.56983856996649
O           2.55166882628026   -1.52645962581765   -0.55390266949924
H           1.93377606852872   -0.90569873034114   -0.98167767869425
H           3.41225393995499   -1.37837039166893   -0.94888834776082
O           1.33986552150433    1.48465544660236    1.29653664798793
H           0.45928243198081    1.70577029776769    0.94953914220396
H           1.94190328276873    1.60748729954750    0.55819036825021
O          -3.47289182095801    0.47897361612441   -0.22910283137363
H          -3.41467975749178   -0.27803164002539    0.36071014996098
H          -2.82931862421741    1.13045090161198    0.09305736458008
O           1.03548228582126   -1.14245117231184    1.61843491795327
H           1.24066730678261   -0.18387554382801    1.72888323155576
H          -0.08706377121838   -1.07484467873981    0.78319484772376
H           1.71434769694309   -1.48979914447269    1.00474879597590
