    19
        -40.91898035
S           1.50629526801649    0.55744632834536    0.29172650291893
O           0.88521130074777   -0.52982138624908    1.03156892574657
O           2.46917841177095    0.12952953860842   -0.68860690398820
O           0.47100860650638    1.43420160705609   -0.28278169419877
O           2.27203771013808    1.44321479699378    1.35737334353660
H           2.99095434394651    1.84690773404239    0.87840729206973
O          -1.28210931980769    0.76566734281423    1.81637154205858
H          -0.46701561735743    0.23042914920974    1.72164820149276
H          -1.05817056748708    1.61590267498827    1.42578287514978
O           0.78324427903050   -1.86169315681533   -1.25789016695800
H           0.75087729188199   -1.77026285096166   -0.28700761835016
H           1.61606326208861   -1.41133875977583   -1.47842936039860
O          -2.67342977109681   -0.53597123309435    0.03323894275514
H          -2.27627195862970   -0.00949364624275    0.78458162611094
H          -2.68912799670702   -1.45089562150415    0.32171175740736
O          -0.91877355474772   -0.03777950316386   -1.71249992333039
H          -0.36267615941077    0.69542096654432   -1.19217940072275
H          -0.29349250843574   -0.86144221819435   -1.68054908831445
H          -1.72380303035954   -0.25002174261099   -1.08246684334418
