    19
        -40.92246920
S           0.21613588468575   -1.04938811197445   -0.02216395361299
O           1.06586207819405   -0.91587263758903    1.13823654443362
O          -1.18970501238738   -0.99744284255341    0.24345322887930
O           0.60952160749034    0.00841675895671   -1.05011458369140
O           0.54753412704895   -2.36917987821216   -0.75230915381876
H           1.53322819117673   -2.35007185300760   -0.84257862798711
O          -2.81882229921993    0.95195212891908   -0.63682578325122
H          -2.37995879579899    0.16164038801753   -0.26872293610056
H          -3.23583942125468    0.67573398806044   -1.45460330873323
O          -0.29327405478734    1.22223942861668    2.07093216944510
H          -1.14819716213577    0.84093855216618    2.28590923708037
H           0.30738168722004    0.46984786825726    1.93295387510510
O           3.02864698274406   -1.61344292183015   -0.56516540518771
H           2.70141478071385   -1.30600931772137    0.29583512782802
H           3.09966148777623   -0.83434422012524   -1.12393413579076
O          -0.45762239492786    2.13482171215942   -0.40951606295431
H          -0.35531359877000    2.05034473360345    0.56960649177858
H           0.17553071757117    0.99425788469524   -0.82836320414105
H          -1.40618480533808    1.92555833955887   -0.58262950928838
