    19
        -40.92343656
S          -1.39685989305915   -0.78161546003945    0.53208196873990
O          -1.53966071474570    0.39122301062883    1.39609556204892
O          -1.79666871309491   -0.50014624215140   -0.83020243647888
O          -0.06152375441028   -1.35157102062317    0.61532623961769
O          -2.37969558122240   -1.87257126497847    1.10269290128103
H          -3.22722446009945   -1.44352381261270    1.03858263995281
O           1.51938474609116   -0.85892322688037   -1.45988192998462
H           0.91522714205192   -1.17531948455100   -0.75233867946787
H           1.47974250870890   -1.51344861495413   -2.15851484984985
O           2.01336220190293    0.21336102775792    1.22340309095563
H           1.32634783793556   -0.48478224179296    1.24874954323707
H           2.52808119900173    0.02917014754742    0.42990609417050
O          -0.07478366647561    1.29590260976801   -1.63813618386561
H          -0.86234293581354    0.71866168962640   -1.49459830075293
H           0.65546852478829    0.65910224524855   -1.78601341902967
O           0.24909698294874    1.98219411080857    0.73541164866154
H           0.14218093380692    1.84270251590471   -0.31919206810270
H          -0.55570646898379    1.43029929455460    1.11194055538898
H           1.06557413068764    1.41928470670224    1.00468762347868
