    19
        -40.90774463
S           1.79025706919605   -0.07674974080254    1.51784596207624
O           2.68323791382093   -0.11446773873249    0.28300890013584
O           2.55341730577758   -0.22722927483264    2.70159438349240
O           0.84934305499157    1.00034409476032    1.41886062173330
O           0.91184020032250   -1.40751519066603    1.35182797877395
H           1.47993297731394   -2.13254223356033    1.60286840750305
O          -2.65914792577298    0.45234937694957   -0.95770431096643
H          -3.54643482090817    0.09070705090500   -0.96717464682183
H          -2.33788524586991    0.36367544892450   -0.03066711293684
O          -0.56788179958895   -0.51016056382272   -2.29731530320191
H          -0.70939008994448   -0.35150746915306   -3.23225296856657
H          -1.37676232380060   -0.18761030047545   -1.83581779678905
O          -1.64115628144519   -0.03776336871728    1.46498587663107
H          -1.32580732518204   -0.94540261087418    1.45737309041641
H          -0.83581300695415    0.50173774627432    1.54897069786611
O           1.22443687032850    1.14188544292526   -1.28984372435460
H           2.16471151111817    0.39172400696245   -0.47315195304859
H           0.59672361380830    0.48977655930199   -1.70262451649432
H           0.74637832278903    1.55874875475674   -0.56078358540447
