    19
        -40.91346212
S          -1.49055496437836   -0.08890916588000    1.40136074899510
O          -0.80573004273836    0.64422178559153    2.41988617947899
O          -1.42893271816667    0.47765770644449    0.08233927113853
O          -1.05016783200656   -1.54345102079985    1.38300604687798
O          -3.00475267921279   -0.20472371414124    1.79906940380863
H          -3.03659989722795   -0.39466986038806    2.73462037238491
O           1.14770359685983    1.15875573894024    0.49034459834638
H           1.13818518564194    1.40148729710861    1.42114633310860
H           0.20716830767990    1.13244362786743    0.23815551709490
O          -0.18276346507402   -0.70729637677379   -2.13542360704117
H          -0.88125251437597   -0.26571103843501   -1.63299436879109
H           0.43109826235883   -0.00012654497299   -2.41090235756907
O           1.75655963265587    1.23227303987218   -2.25183129826595
H           2.65888487213984    0.96096524919605   -2.42850289286189
H           1.69981863872366    1.42535405105781   -1.30518985159555
O           1.00816626815568   -1.53146258107829    0.01996982155029
H           0.60797625015040   -1.40416874604350   -0.89256068076689
H           1.36138051970229   -0.65207886979681    0.25542314043422
H          -0.13618744110517   -1.64056059784463    0.81208361344792
