    19
        -40.92021785
S           0.86994053842451   -0.59460968482437    0.12152048486993
O           0.21958875951374   -0.83418347334961   -1.15493024411232
O           0.96448781790348    0.90076057192813    0.36197079399521
O           0.27176813311785   -1.25717765523714    1.23694571189290
O           2.34607635105671   -1.03428454375412    0.00596240187946
H           2.63478573452053   -0.76683988605102   -0.90196692407037
O          -1.46994150078793   -0.05791976335517    2.89391846210366
H          -0.91827847267096   -0.65902319459009    2.35809257455291
H          -1.01245602060040    0.05438483530371    3.72928224962697
O          -2.19447048848992    0.34511766441659   -1.10937826760463
H          -2.33296575203775    0.72979204950975   -1.97710881789659
H          -1.39157702912834   -0.20658061610661   -1.17280017798523
O           2.43848657515757   -0.47519136412534   -2.53414539984548
H           2.65410326223211   -1.21623927437677   -3.10565261702846
H           1.48429471239333   -0.53528746397667   -2.33703846089663
O          -1.27764036154056    1.73589183480975    0.96000431436419
H           0.00166219657371    1.34080670810240    0.63780900417105
H          -1.80168851888182    1.33685536535454    0.22709602246870
H          -1.48617593674542    1.19372788031704    1.76041889951492
