    19
        -40.91392431
S          -0.85619803112966    0.33962320155544    2.03701360668622
O          -1.40840539506579   -0.87166104376858    1.50411659525994
O          -1.44569015855700    0.91405892619531    3.18918987374386
O           0.64759505940263    0.22693495765570    2.20352861485715
O          -1.00022702647576    1.40758804494879    0.84466491001483
H          -0.86679507621204    2.25774750056304    1.25676888270399
O          -0.83351388605808    0.62761104155985   -1.91078871210795
H          -0.85494440340782   -0.32926833069839   -1.75176320128377
H          -1.16827476223446    1.02866968311846   -1.10068961237287
O          -0.64956234320556   -1.89562283469524   -0.77160317813763
H          -0.93299380457092   -2.80734794943767   -0.85711731242570
H          -1.03507231850103   -1.56101358229206    0.07244067504005
O           1.76373750813572    1.12800529100234   -1.54651475164826
H           0.81041157990441    1.05488732958957   -1.78769830141522
H           2.26025361824464    1.05393705374823   -2.36268415399458
O           1.66502661187307   -0.85363770321540    0.20985647697916
H           1.84720650096123   -0.09449095171521   -0.39779586359092
H           1.11129541966628   -0.26230092955299    1.38167227966104
H           0.94615089721058   -1.36371970461895   -0.21259682798365
