    19
        -40.91505805
S           1.44798796235874   -0.32655439084010    0.16914359687186
O           0.83073901314346    0.51859131316385   -0.96957998134887
O           0.38116165207521   -0.75883954011735    1.04867133895398
O           2.26284404694850   -1.35358459676228   -0.36697788712393
O           2.28873915049926    0.73042657045930    0.92736063790056
H           1.63865041332389    1.31743398429492    1.37489502200876
O           0.06913967090447    1.61499789949268    2.08647854700699
H          -0.06935358503063    0.67347608382749    1.85244428893068
H           0.05609003129031    1.67123742613349    3.04472511944983
O          -1.77376164702247   -1.43151127248049   -0.49717349727617
H          -1.12563209971405   -1.43317910979849    0.22399322292408
H          -2.12499202060973   -0.52445762336387   -0.50381274697370
O          -1.79261962330991    1.33911928851204   -0.24248395723274
H          -1.60650648668483    1.74375742001987    0.60993227030174
H          -0.95898490366499    1.36040020259754   -0.72733158526983
O           0.03491410871963   -1.37617850264499   -2.37605750778647
H          -0.76804552231970   -1.54424637611250   -1.80424958438406
H           0.52017014819701   -0.17302151696218   -1.68893343029124
H           0.68945969085925   -2.04786724940937   -2.16104386665893
