    19
        -40.91015965
S          -1.69825571284135   -0.09338609219296   -0.88985339833911
O          -1.64867891702920   -0.40968008262673    0.51098488250327
O          -1.27475072182812    1.35263077948434   -1.11983352308411
O          -1.01960975671571   -0.99858569197419   -1.75737416001820
O          -3.20786556077082   -0.04578154835132   -1.31694655306542
H          -3.65847513133516    0.45484086279430   -0.64017567578557
O           1.02957086982260   -2.56518458796525   -0.89316230992488
H           0.69335170870398   -3.46162276110250   -0.84529959434958
H           0.35236062094302   -2.04453571169938   -1.36057282013388
O           1.43188886680146    1.91471413236863    2.17288213325447
H           1.29021243860842    0.96030780366985    2.10026680181495
H           2.17025207178455    2.03771025795185    2.77121525421542
O           0.98068993666469   -0.66979794956547    1.02144808416210
H           0.00662915798705   -0.65243557516952    1.03819374531333
H           1.20798679877151   -1.44302853497080    0.46914489819114
O           1.12809040109995    1.48615069190245   -0.50836002980238
H           1.24233248924321    0.60326889131700   -0.07260414273701
H          -0.24184982410993    1.46671522634232   -0.91419734762852
H           1.21612028422117    2.10769988982526    0.23424374539862
