    19
        -40.91633632
S          -0.08077832653327    0.44297058599524   -1.34462329759650
O          -0.23775440025140    1.21649447931192   -2.52846612754278
O          -1.25933873892052    0.31741832760527   -0.51681010806374
O           0.54893522594340   -0.89054730263003   -1.61593352880336
O           1.01529492961454    1.15021141436950   -0.42095300519550
H           0.61169548814513    2.04032459502958   -0.29957545615230
O          -1.89295777658307   -1.75535279635144    1.03777408361284
H          -1.83106161094345   -0.99347833193800    0.42749452299068
H          -2.07334417927146   -1.39355935959161    1.90764351015183
O          -0.74471163612292    3.05963780857504   -0.57888814237655
H          -0.72334670782274    2.99120477297092   -1.54247363089644
H          -1.43844534363821    2.45140215267118   -0.29743704314704
O           1.83634807404428   -0.40911114436906    1.70359199405476
H           2.79369132089171   -0.42223494892737    1.76321532476207
H           1.60666913826447    0.24338727748782    1.02110480389446
O           0.58257097631915   -2.34814575888218    0.37017791536615
H          -0.36297363900108   -2.32834836649261    0.66687886874268
H           0.56793727754944   -1.58961582156772   -0.75617280618029
H           1.08156994849718   -1.78265758322536    1.00345213246238
