    19
        -40.92218953
S          -0.78364248700617    0.85226831651711   -0.01534119195277
O          -1.09171717016684   -0.20390936682085   -0.97431371443687
O          -0.58405651063819    0.30250553178502    1.32178194217437
O           0.37016054962785    1.64233247044806   -0.44459977913596
O          -1.99246031531859    1.83167565098712    0.03597281470447
H          -2.72197972799348    1.24569737923820    0.32672107472008
O           0.99915552558606   -1.37664369943312   -1.96116893158814
H           0.14021540642629   -1.02514147765889   -1.60192491865487
H           0.96684030650277   -1.23765764775135   -2.91017782244705
O          -3.17423906681649   -0.39535885946356    0.78953513884681
H          -2.79356513207784   -0.77365473419495   -0.01408221675963
H          -2.46748802962705   -0.44975009333572    1.44644216980321
O           1.82300147257134   -0.55287793919757    1.76446338472022
H           0.86438274774081   -0.30183447836749    1.67301663228415
H           2.16264791067025   -0.04001168072169    2.50105157253079
O           2.38114442638800    0.21561869203168   -0.57401735420519
H           2.32252345214557   -0.16306044400810    0.38773909357331
H           1.97370901639989   -0.51163974977603   -1.18824319161572
H           1.60536763558892    0.94144212972517   -0.56285470256251
