    19
        -40.92135407
S          -0.23794702218623   -0.94401656461335   -1.21962213038620
O           1.16117529122139   -1.28696537257972   -0.96142316902792
O          -1.13915960130046   -1.62647295275386   -0.31734574471096
O          -0.43653245449264    0.49654263152781   -1.24864751780848
O          -0.55864496722114   -1.45555813607970   -2.67756331753994
H          -0.51493920918930   -2.40222533401115   -2.58467441612911
O          -0.53929002978542   -0.57901451581213    2.00819429474861
H          -0.82827971241663   -1.16657020304944    1.27050599036502
H          -1.04758173519476    0.25072076223024    1.84287636189698
O          -1.92162232240364    1.34101845720493    0.82997075032003
H          -1.45642180631949    1.13567364330204   -0.00442365417700
H          -2.83971068568390    1.10275416531137    0.69008039516621
O           1.49061139200604    1.95353503910012   -0.17114873030609
H           0.73329391315228    1.54808846910923   -0.65150816763939
H           2.16114604875160    2.14425294888851   -0.82964311732843
O           1.76355482186830   -0.18792131699759    1.19003437302961
H           1.76367828627021    0.76196185472598    0.82422707588440
H           0.80047311757991   -0.33453868450707    1.68511434632732
H           1.64619669531271   -0.75126490096629    0.32499639730778
