    19
        -40.92246925
S           0.59907328668803   -0.15606128867268   -0.87252037465798
O           0.24261661344719    1.15171426672667   -1.37148785930508
O           1.07046429208388   -0.02461864318130    0.57353785876311
O          -0.42609956574337   -1.14939300750114   -0.98124061174799
O           1.86858084973179   -0.65388197925136   -1.59710798135091
H           2.49716206551268    0.10783016206220   -1.52790350433047
O          -2.12460643713985    1.16408319082591   -0.07293235395563
H          -2.60327577837298    0.46006587353480   -0.51758857455693
H          -1.35048666602029    1.35365845547056   -0.63027051739021
O           2.85925862546787    1.68622373341695   -1.04600413056515
H           1.94355995865333    1.94102523289316   -1.24503660049648
H           2.94714255908113    1.70897198816972   -0.08895905982364
O          -1.62210549396129   -2.31673886350581    1.12522454909784
H          -1.18283895272917   -3.14541789175744    1.32357009825727
H          -1.27396823530101   -2.01809950642053    0.26362959105877
O          -0.92091341412090    0.07775956021092    2.02155299947449
H          -1.49493480863130    0.62076927110012    1.42851846541033
H          -1.26344181012466   -0.84293989965184    1.93010992377974
H           0.23481292146491    0.03504934555038    1.28490808235393
