    19
        -40.92135400
S           1.08940992769589   -0.11748253251894   -1.11172404935812
O           1.97272187287572    0.38242100883826   -0.08138315283962
O           0.80503024061292   -1.54358848127190   -0.94644236218268
O          -0.13394946989723    0.65763752278998   -1.24490830654632
O           1.84708243130837    0.02703546303945   -2.48844190320707
H           2.68017877479216   -0.40130421071617   -2.31755668776946
O           0.52022599330983    0.16394110695083    2.08885235948982
H          -0.00947833552225    0.97478591831256    1.89945064270334
H           1.25254869471229    0.21824349761498    1.43046508795668
O          -2.35595038239363   -0.54629139110924   -0.46238490572191
H          -2.72775714220666   -1.04903608848959   -1.18948636767201
H          -1.62797774709033   -0.00246139034920   -0.84035560928942
O          -0.53499053148165    2.26291714048465    0.87697192927782
H           0.06550434924363    3.00932640001305    0.83725519603509
H          -0.44233602222284    1.79242220720775    0.02567928126672
O          -0.67541058338900   -1.73579491681241    1.04558178157995
H          -0.01989199394777   -1.82181465656538    0.24356545578768
H          -0.20824495698089   -0.94188736181353    1.63216905172325
H          -1.49671511944852   -1.32906923562949    0.60269254874410
