    19
        -40.91469044
S           0.21823377502376    0.42113168668822   -1.29584790260320
O           1.16895204582196   -0.12610475083890   -0.19711218261517
O          -1.13772504544864    0.11602490309524   -0.90395636217183
O           0.51710178417559    1.78862848182488   -1.53794762039279
O           0.58116574366483   -0.44406223984311   -2.52140558191105
H           0.15932792509824   -1.33004322296233   -2.36572540717824
O          -0.92075187873404   -2.39704775985145   -1.70966088895643
H          -1.62766098235545   -2.71182015008019   -2.27870448886131
H          -1.28107831618823   -1.65117420167026   -1.19540938265806
O           0.02856300526359   -1.18386917741112    2.17889726828095
H           0.44760947040395   -1.11866402312816    1.31030848000988
H           0.73688382186430   -1.23982410511936    2.82333441327050
O          -1.09675917586671    1.26207575706062    1.60908996547574
H          -1.38371908539152    1.01028512112234    0.71903004061753
H          -0.92105281392340    0.41575100739946    2.05773310797737
O           1.36568093322222    1.99283707890877    1.10568545711492
H           0.43661637217094    1.90341398574972    1.45632066762391
H           1.40214769918896    0.70419305695889    0.39638565025290
H           1.30646471202249    2.58826854208264    0.34898475675678
