    19
        -40.92135273
S          -0.45530911305599   -0.13483020719057    0.75050053224643
O           0.91083904402297    0.41113549803460    0.87747124127989
O          -1.35178587428201    0.85209610417045    0.15636725828036
O          -0.43801232328230   -1.37994872520264    0.01333101774087
O          -0.95441595603268   -0.44026462038703    2.18909237587252
H          -1.19551500538817    0.43837401891043    2.56182569840033
O          -1.76039971508678    2.03985814645082    2.47200651064921
H          -2.69547145889524    2.17792982647786    2.64122537003610
H          -1.66734133787295    1.90652829076434    1.50833666557281
O           1.77046355031927   -2.25324491267751   -1.07886132468790
H           0.88460591825283   -2.08855998572205   -0.67130038314836
H           2.29942869970474   -2.68533321919910   -0.40551529512115
O           1.94240677082187    0.27581949514062   -1.33275630291501
H           1.57554580326982    0.43060515992460   -0.30051963009956
H           2.06532405914999   -0.73771251538144   -1.35321277140206
O          -0.42119698354894    0.45444766958932   -2.27389758352738
H          -0.87663843296385    0.73336120828301   -1.44746663919472
H           1.08808923739636    0.44490701801690   -1.87212753625869
H          -0.72061688253918   -0.44516824000506   -2.43449921369959
