    19
        -40.91892632
S          -1.40091927103707    0.16453096479954    0.26205760695554
O          -1.51847225274778    1.22584721613818    1.23867047559294
O          -0.81597287366460    0.65797692040028   -0.99888424884268
O          -0.70537262551151   -1.00928666019839    0.72846731211241
O          -2.86988447410845   -0.29079601889046   -0.10653268573863
H          -3.36947218274291    0.51966070409949   -0.14156767264645
O           0.96102857978128    1.77688666550498    1.78544541104373
H          -0.00361142313857    1.56144131806382    1.70759258368477
H           1.01237506919103    2.71024848484025    2.00282521282375
O          -0.21939108591647   -2.00289216926541   -1.73352283975122
H          -0.43486446221696   -1.21302043209413   -2.23803397669237
H          -0.63849314984962   -1.86437783211948   -0.86754946862498
O           1.60426226460892    0.88567759674430   -0.50582765012319
H           1.51499513619938    1.29557241034220    0.42777512600201
H           0.60532046732563    0.84802723716077   -0.83385506797038
O           1.85648398187694   -1.57105678122921   -0.10971935815046
H           1.85091642017713   -0.14108128795936   -0.35870134570567
H           1.21791691065489   -1.62667533889631    0.61864323681366
H           1.35315497111348   -1.92668299745572   -0.87728265079452
