    19
        -40.91836650
S          -1.02461649002527    0.97396837918701    1.37558101509417
O          -1.07210333864198    1.99227652880433    0.34257896543253
O          -1.80891026931926   -0.20856923289923    0.98629284771312
O           0.31803095405816    0.62964308681897    1.78284417757829
O          -1.75044780444391    1.56988714783399    2.64304575125519
H          -2.57336399806035    1.88260016487826    2.27965489525742
O           2.06680802106546    0.01867202757906    0.00092395051153
H           1.41686783879840    0.25559472882285    0.72034546636763
H           2.93118864166295    0.22410246428786    0.36107475126320
O          -1.09852118330070   -1.13529626895850   -1.18042841294714
H          -1.48615984855848   -0.79747358242326   -0.23885721455760
H          -0.33496693799479   -1.76537917334851   -0.96329995777477
O           1.09753865752261   -2.38586648745359   -0.67317831807892
H           1.56619012205713   -1.58393501325972   -0.35129625027938
H           1.58433389675594   -2.71197538804998   -1.43241578816092
O           0.13350963041956    0.97666754164095   -1.71913780341571
H          -0.63215233084048   -0.26467524863716   -1.55703918690635
H          -0.33723438683454    1.53458289824630   -1.04932430675394
H           1.00400882564725    0.79517542691498   -1.32736460159930
