    19
        -40.92120620
S          -0.87503128845047   -0.70939630888138   -0.79596393126549
O          -0.54114977876481   -2.01799400126575   -1.28701652758383
O          -1.12813477634734   -0.67824427382049    0.64488353964177
O           0.03663917431134    0.35234068123353   -1.19025532737264
O          -2.26598042554063   -0.30794830309739   -1.47066610770070
H          -2.71039877629386   -1.14006337768513   -1.60275999438561
O          -0.96254218645654    2.49532767294980   -0.06367751439345
H          -1.91661591026513    2.46213568091911   -0.15501111134523
H          -0.60520114804853    1.80159460521354   -0.66468443309200
O           2.12529645188370    0.49665238323635    0.47527013367690
H           2.16534676581146   -0.47905632085639    0.57046843445314
H           1.62876303730593    0.61653896392683   -0.35634000755152
O           1.61686888232506   -2.10945025774879    0.27998065991029
H           2.17153378738223   -2.83294911493688   -0.01946130606764
H           0.80691912446652   -2.14202960885915   -0.26499914648217
O           0.11117126580476    1.11708195337713    1.81082847716848
H          -0.28214965337960    1.86382251321069    1.24854863083836
H          -0.44322357507657    0.29288995581956    1.46111496246096
H           1.06788904933131    0.91874714725721    1.37974055909658
