    19
        -40.92174065
S          -0.15075498118264    0.86251926336900    0.19348209371466
O           0.56061673392942    1.13736094874539   -1.03706208871290
O          -1.33607353434966   -0.04486689400608   -0.07979737077049
O           0.66259323337269    0.32717294347734    1.24558635105093
O          -0.80646095950201    2.17056561059691    0.68655069907865
H          -1.12852086972649    2.63473303554665   -0.12887810629837
O          -1.13062099579296    3.05196032134260   -1.73382453368926
H          -0.47364751485568    2.34231382670678   -1.85901173828347
H          -0.69748791424598    3.87753329713850   -1.96523089333796
O           1.80346955263474   -1.26624107835080   -0.96306536501030
H           1.48988915662496   -0.37315493053032   -1.18132200677943
H           2.29039287307744   -1.17869778724577   -0.13948152870075
O           0.25209058190866   -2.11885204087213    2.29091210577693
H          -0.35441387413336   -2.04799012298143    3.02986646103309
H           0.50357159625765   -1.20678793761706    2.05099766280585
O          -0.50539636150459   -2.36565889186326   -0.24610292798926
H          -1.05121461016983   -1.08866425351273   -0.19191380052858
H           0.36421980039525   -2.17958813032486   -0.67267516196357
H          -0.29225189275753   -2.53365717964319    0.70097014862385
