    19
        -40.92159001
S          -0.95888049401851   -0.10663405303225    1.11729397207736
O          -1.40096758621027    0.44298583220389   -0.17112331609355
O          -1.55587096563202   -1.38302227891615    1.40212041848007
O           0.49213984128648   -0.06647358185318    1.21961585153549
O          -1.47526237285871    0.90291929139102    2.22437084147114
H          -2.36776361171699    0.62048142833979    2.39971526893670
O           1.61394304414610    2.16741748231762    0.44042605279075
H           2.55637114817576    2.11945439462885    0.61327266013578
H           1.19798248994045    1.42043102911484    0.93203266778233
O           0.50580938058096    1.10691608722157   -1.60606308289429
H           1.01028037724555    1.69932949499231   -0.95374184165477
H          -0.38826458230334    0.90498430916046   -1.08366593477685
O          -0.93705084423056   -2.27120591332467   -1.03116039374769
H          -1.58418815186582   -1.78794515219577   -1.55021142300838
H          -1.19597588155939   -2.13028917897516   -0.09953893196666
O           1.44468327889894   -1.12807679774494   -1.03538023918683
H           1.36443352323441   -0.92940994493942   -0.08163959592990
H           0.68726647681816   -1.73677090526341   -1.20580702130797
H           0.99131492984095    0.15490844667191   -1.53051594264263
