    19
        -40.92343667
S           1.36355418116204    0.68647544257917    0.71716910531493
O           0.70722038271455    0.30772898372660    1.96943451242712
O           1.99124971495133   -0.44716960828697    0.07240072813373
O           0.45932912627909    1.40240209794839   -0.16887920641116
O           2.50039746722236    1.70573624082860    1.10531355594199
H           3.04649931845236    1.19537833074721    1.69507875666595
O          -2.16685621654591    0.94852966140451   -0.03505763697905
H          -2.28181349615480    0.68275278596323   -0.95406175937375
H          -1.28624269408510    1.37701982067070   -0.00220758917991
O          -0.00962099649939   -2.02282323701754   -0.52509894567938
H          -0.30225127463227   -1.50431258599551   -1.30368019777545
H           0.86656643611163   -1.62933412698692   -0.29823148277712
O          -0.46428731861738    0.00402693511377   -2.22812913436808
H          -0.02923980473636    0.58300473178967   -1.56391399440120
H           0.06926737998827    0.05908822990963   -3.02206642449150
O          -1.30494293475718   -1.00808834898898    1.34613572992676
H          -0.49616045808424   -0.49171951288460    1.76175065281127
H          -1.82931256151726   -0.27017042464508    0.85977283453351
H          -0.83335624124969   -1.57852540581519    0.57427050570691
