    19
        -40.92343667
S          -0.41897484829399   -0.52057970339233   -1.54876714110917
O          -1.72727058690810   -0.77498961576937   -0.94389708879323
O          -0.21775141316274    0.88516207280355   -1.82859181379851
O           0.65948375178850   -1.09215448066665   -0.75800535930257
O          -0.41195447064520   -1.28772413520433   -2.92480952626139
H          -1.14080114051780   -0.88962036367226   -3.39044637410970
O           2.08107992922889    0.64367207066582    0.66098203095630
H           2.84592620161802    1.00120069097626    0.20799585191783
H           1.66869822086972    0.00280118679292    0.04053648350712
O           0.35940890874273   -1.39595408038331    1.87615661348735
H           0.48604561269396   -1.57100302113954    0.92042280355154
H           1.12267777258822   -0.86912124746232    2.13749345672676
O          -0.23014072885845    2.00679876784755    0.53469019553460
H          -0.29742099179492    1.79533619470422   -0.42696396405238
H           0.68064231824445    1.73138369816182    0.76986455131751
O          -1.62354776725868    0.11805402214509    1.37139006761810
H          -1.10322339843935    1.01851860167758    1.12272950947939
H          -1.82391789596191   -0.28638856122491    0.42812873557215
H          -0.90895946387976   -0.51539209684891    1.75109095774329
