    19
        -40.92008945
S          -0.40884672780133   -0.69533953980477    0.05673048444241
O          -0.65372595561681    0.48068373269720    0.86449295073914
O           0.65617892898814   -0.53391403883423   -0.89364608425966
O          -0.12541464185071   -1.89093340557608    0.97065957611094
O          -1.70050343244982   -1.09922348553352   -0.65938407055454
H          -1.66545476282268   -0.66131394089923   -1.59123176131964
O          -1.50987892002949    2.22946218440396   -1.01193734940381
H          -1.15430586144942    1.72601641863589   -0.25719482721148
H          -2.35788299017314    2.57917697605175   -0.73063562325277
O           1.64267809235997    0.64783921757037    2.28091339918489
H           1.41710267614351    0.67013107855596    3.21322961683896
H           0.80501295372437    0.74263396355318    1.79187905985547
O          -1.25827416282040    0.22331917903061   -2.75716923219530
H          -0.30727221560397    0.06388935469022   -2.70253214563291
H          -1.40018891960561    1.10047938656859   -2.33634377165084
O           2.37518061149094   -1.58792233385262    1.01795394793925
H           2.35468493653032   -0.77516969898630    1.57109575192601
H           0.89845440046904   -1.94373007920097    1.06905772572063
H           2.39245598051267   -1.27608494906686    0.10406234269544
