    19
        -40.92158999
S           0.34503537239253   -1.11042049985361    0.90925906482048
O          -0.55684388612215   -2.22464133336690    1.01771900048199
O           0.97740154544811   -1.02926220936407   -0.41414177719131
O          -0.21599476116772    0.17772472926002    1.28798055108900
O           1.52061874522077   -1.36443539516379    1.94122297450201
H           1.64329259939202   -2.30872889707226    1.92700896995277
O           1.31914880103226    2.24970985242341    0.83437994241445
H           0.83192411281083    1.47625926040437    1.20471827683853
H           0.89197616368783    3.03553490284445    1.18123184182247
O          -1.71722377855056   -1.57821147830078   -1.29037821240421
H          -1.03037358592589   -1.85414670924634   -1.90173740576857
H          -1.44415288104889   -1.92785666441513   -0.41969615140900
O          -1.66630216881872    1.01501943368550   -0.78941170345568
H          -1.41447342923930    0.84384318810901    0.13942224503188
H          -1.91183454341380    0.12133733854529   -1.12761348115127
O           0.73188221254556    1.21632415628298   -1.43006826371162
H           0.94031345264564    0.23717480714629   -1.09642299256764
H          -0.33183886962519    1.23892465579673   -1.30513490281024
H           1.08744489880083    1.78585086230066   -0.66833798644148
