    19
        -40.92113585
S          -0.48576531929707    0.59846179566754   -0.91238434453244
O           0.62608241368577   -0.48738900008045   -0.99095273300162
O          -0.78623974426977    0.80996640353264    0.49089756080238
O          -0.08587411792310    1.75972658741050   -1.62695046149934
O          -1.66880147848082   -0.09217403206581   -1.58427708775072
H          -1.69587030198222   -1.05930973372211   -1.24322029715898
O          -1.43943012095291   -1.37800793885650    1.83672811593230
H          -1.17908781167613   -0.51726494101956    1.44575846017244
H          -2.27407497368557   -1.22963363299343    2.28539232026069
O          -1.46872014650579   -2.41607907432417   -0.59583863123779
H          -1.50046300570744   -2.20352358440429    0.36951770868664
H          -0.54651525897920   -2.59949071394991   -0.79837931322297
O           1.57815895845470    1.69271790572440    1.45380925648627
H           0.65554665648194    1.51357580193194    1.19739316814839
H           1.74903801842790    1.17434667819473    2.24291481826003
O           2.53888845622279    1.15643284505103   -0.98312631326564
H           2.04435443223863    1.79813465143146   -1.50915173263167
H           2.43139065366092    1.44717021852059   -0.05111524992252
H           1.50738268027004    0.03233979396219   -1.02701525451965
