    19
        -40.90880565
S          -0.36122026998744    1.25753734762455   -1.65494747527510
O          -1.14186467079120    2.24532225654587   -0.98482695661754
O           1.11291013654164    1.42993956018791   -1.31724885665618
O          -0.74271692558076   -0.11480171935161   -1.48147854189560
O          -0.42672900530596    1.56062357197040   -3.20344662966085
H          -0.48510052726336    2.50780864797577   -3.31478036347195
O          -0.89580452083601   -2.11153395834691    2.43415852163429
H          -1.28696455487346   -2.21191813069378    3.30310129712997
H          -1.24605743310124   -1.28928197592631    2.06302192492680
O           1.36914919810355   -0.76655339612477    1.61144916458427
H           0.70536033642410   -0.06087167579144    1.58588471605028
H           0.87778789190687   -1.53520018375793    1.94302841607725
O          -1.13851640404386    0.40824223858226    1.13535773449312
H          -1.15346631444227    0.02441142333900    0.24374058775677
H          -1.38463848055911    1.32858986912578    0.99968929252738
O           1.83826704381655   -0.90926133619576   -0.95489646953243
H           1.80897620080288   -0.93672337733022    0.04521799055506
H           1.00247408219991   -1.29019023259911   -1.25476188259772
H           1.54815422698381    0.46386109077743   -1.19826245002926
