    19
        -40.91389212
S           1.00390804805878   -0.26136880706490   -1.56789740134159
O           1.48905340022082   -0.36452296817977   -2.90408042108664
O           0.87248198732187    1.09415262242252   -1.04039403348010
O          -0.24223871376540   -1.00367904096369   -1.30803418296039
O           2.09195775268702   -0.96974145248024   -0.63430375009512
H           2.66549733982413   -1.35312286741999   -1.28838779199148
O           1.05460500149129    1.35919717624968    1.49555357136452
H           1.25269217030900    2.28514318290280    1.64751739180138
H           1.11017114001382    1.21630857577502    0.50618640678626
O          -1.80437287097359    0.96535091949306   -0.70804087042028
H          -1.18369893110364    1.65924424492597   -0.96510793196799
H          -1.36597520648713    0.14617368180867   -1.05893746082047
O          -0.73972409821812   -1.94520915995109    1.03974527845677
H          -0.43278229643703   -1.68274915137200    0.12888744691877
H          -1.45285105670540   -2.57387624537235    0.91121068957067
O          -1.27646839742792    0.43451504918412    1.68898550592041
H          -1.10096368944533   -0.58019477797207    1.57325171562612
H          -0.32428548876311    0.84748091532300    1.75160967170105
H          -1.61700609061240    0.72689810269887    0.73223616600970
