    19
        -40.92079106
S          -0.82109565725346   -0.69169601475131    1.02662465123467
O          -0.20396562041426   -1.58774519275779    0.04661033862128
O          -0.11816160274856   -0.67998903016064    2.28348635036446
O          -1.05168208611331    0.62856147881289    0.45702979781355
O          -2.26547900913998   -1.27769360260863    1.30195864457096
H          -2.08982049013946   -2.07986709509084    1.78382378973979
O          -1.74283821436066    0.65581554325059   -2.07306403576198
H          -1.68793606827310    0.65118621668623   -1.08828066634513
H          -1.88943532139535    1.56712556967236   -2.33445468551493
O           1.32598669714655    1.42264211766547   -0.45086331922851
H           0.44269564934947    1.42138992251252   -0.02953865290686
H           1.04902559203412    0.39833281995112   -1.44815460414123
O           0.58572607415983   -0.40300488422220   -1.97788145346801
H           0.31072589814958   -1.03499800020622   -1.18007430606554
H          -0.31142114366151   -0.02386176146213   -2.26307470259940
O           2.32194148298021    0.01682061942409    1.54433758456951
H           1.90640357346482    0.99120260104506    0.21920693051414
H           2.78026985375995    0.35062591260166    2.31787164461388
H           1.45906039245650   -0.32484723036195    1.86443668398799
