    19
        -40.92136360
S          -0.79194755830078   -0.32659295055495    1.09126909376067
O          -0.46168167293893   -1.42764211719120    1.96160545703833
O           0.20321342375055    0.75827713692105    1.16079062838181
O          -1.04354713082838   -0.70652562157597   -0.28044884795815
O          -2.13755209282017    0.31428809613376    1.63848821594278
H          -2.11018944073870    0.14973668349255    2.57683317411708
O          -0.77877096388883    2.42071336993248   -0.70434504807465
H          -0.42623001161150    1.95872149910333    0.07967034561301
H          -1.73373162266889    2.38662212177811   -0.62520426686096
O           1.26896923187215   -2.32181760259053    0.18762733294583
H           0.69977529254309   -2.12019260298332    0.96478221437394
H           0.67146123220150   -2.67201411135941   -0.47904992985026
O           1.99648117047336    0.04172366340877   -0.44076323096002
H           1.88930269236900   -0.96053399699518   -0.25959069787207
H           1.41818606893233    0.45322898822296    0.30161441470279
O           0.29793973325453    0.48723290445850   -2.18889583284590
H          -0.00324581614694    1.39214501001311   -1.95191642071168
H           1.38619395226581    0.25633681776018   -1.32355998543006
H          -0.34462650771029   -0.08370729790383   -1.70890658631815
