    19
        -40.91182077
S          -0.50471200190781   -0.16218547457338    1.20221927415519
O           0.54908594471442   -0.96622149179399    0.61982695455760
O          -0.44118507231770   -0.01790885484695    2.61699771131501
O          -0.54799714775946    1.19771598935553    0.53175231870643
O          -1.87392888945552   -0.79130199450835    0.77089291376138
H          -1.87952994937418   -1.65685180079508    1.22410257629232
O           1.23588425587939    2.97611435948034   -1.02562336149555
H           2.05886056877058    2.48988043501076   -0.93741864934535
H           0.77740584801658    2.90378519211173   -0.18195767163469
O           1.24345371463967   -0.75460370505450   -1.92762132986233
H           1.12602455726886   -1.61804131240398   -2.32750950890113
H           1.10578007341059   -0.87563646118526   -0.96373458201921
O          -0.87469599191181   -2.71100670156401    2.27181774709110
H          -0.76127387712735   -2.08443213588011    2.99683162208147
H          -0.05304009289858   -2.67254518113107    1.76939566910432
O          -0.55741144582454    1.17401988369771   -1.95311521262203
H          -0.65307682489669    1.14240209337567   -0.53691880361859
H          -0.02651993670673    1.99040063473662   -2.01930034515675
H           0.07687626748207    0.43641652596612   -2.13063735241085
