    19
        -40.92037963
S          -0.33016639914162    0.89914132455888    0.49356014435624
O          -0.22752542458317   -0.29518072964300    1.42545288256104
O           0.93015675083836    1.06263620328964   -0.21201579774492
O          -1.47477654134487    0.79975872793454   -0.35458466206352
O          -0.50669732864401    2.09346527917493    1.45426733781582
H           0.39092525487510    2.27027090584180    1.83284904116603
O          -2.65254633791888   -1.50035640560839   -1.10699961293264
H          -2.41517513347612   -0.59688693568913   -0.82656354726837
H          -2.63894283746291   -1.49168206290390   -2.06642314241048
O           1.14406019493277   -1.12321855515794   -1.75096666914471
H           1.08661438279652   -0.25325745528644   -1.31061095958743
H           2.07823634207831   -1.31344421230772   -1.85816432035385
O           2.05861614295113    2.33882960206231    1.81000650508135
H           1.98651144663370    1.80983559912028    0.99347063632737
H           2.42712001495201    3.19019111409424    1.56138950657829
O          -0.41640260701438   -2.33638103742735    0.04113470097545
H           0.19608276126651   -2.08541267657475   -0.68651451890117
H          -0.31129728885681   -1.23472034507889    0.89593113219689
H          -1.32479338283469   -2.23358835037106   -0.33521864689397
