    19
        -40.91955068
S           0.42166988708548    1.06222533384803    0.23524491919388
O           0.81094767021902    0.01926561179047    1.15608227933771
O          -0.94899001605300    1.44848964575516    0.28790067088351
O           1.32653091226589    2.29155242621708    0.45227657165041
O           0.81723165068506    0.62813409196771   -1.18845561331697
H           0.10722094983316    0.00280652943347   -1.62887120683065
O          -2.61780350724866   -0.64818907619995   -0.23437675997563
H          -2.26083361020861   -1.23617140367998    0.46101607559631
H          -2.31839001501971    0.23980362601772    0.01760968831236
O          -0.95601430535455   -0.82638873238512   -2.19615731531030
H          -1.36049247775253   -0.37409208865251   -2.94032531329857
H          -1.66103882288075   -0.86646270325580   -1.47357421505402
O          -1.14609255075741   -1.77499752989919    1.73471793938315
H          -1.38049501326937   -1.64218068488269    2.65500741402299
H          -0.37608067124650   -1.20426226203811    1.56318867375448
O           3.30669134308349    0.61405048180454    0.36207872159287
H           3.34012565493644    0.28619429638530   -0.54089078679809
H           2.24152808888874    1.91221411983927    0.44716445854688
H           2.65428485279730    0.06800831794196    0.83036379830683
