    19
        -40.92343659
S          -1.51394025696525   -0.50486862488777   -0.54631607632225
O          -0.90425112207334   -1.80013062150463   -0.33273792839740
O          -1.31033930859151    0.39931454307826    0.57448716902139
O          -1.08924901774722    0.09661508342823   -1.81122999128448
O          -3.07005322043163   -0.72231820240943   -0.66117144264196
H          -3.14495803834224   -1.30401832975550   -1.41128533613001
O           1.65096385954524   -1.27367960825114   -0.14163094461728
H           1.60420973646794   -0.93609852944570    0.77732644222536
H           0.76405876181396   -1.68190223005448   -0.28588153037076
O           0.75754369279981   -0.17056121892872    2.13889939310535
H           0.55580092891000   -0.74794465500212    2.87642113366814
H          -0.09094341292052   -0.02153511004466    1.66603035401910
O           0.62514434493908    2.23346850187913    0.46610299350322
H           1.09321843349544    1.94976149698492    1.25913168562182
H          -0.24986914651770    1.79540142888799    0.51618383680103
O           1.28185879182873    0.77369276013402   -1.51295230983302
H           0.30340813311735    0.53436113805723   -1.79310170590473
H           1.14956225970433    1.48887667079282   -0.78692788089973
H           1.58783459094208   -0.10843451295780   -0.99134786156641
