    19
        -40.91888513
S          -0.01859061904389   -0.24324277424474    1.10071857225394
O          -1.07446511537171    0.11570829388972    0.10752333065913
O           0.46454929964623   -1.58296577631666    0.85247746867184
O           1.03110944163103    0.75241332592513    1.08518587669602
O          -0.70604942575588   -0.18355873958905    2.49292213953358
H          -1.50711542003776   -0.73728642892208    2.38058848999320
O          -2.85275390637020   -1.31456844077140    1.46765164124292
H          -2.38551326094744   -0.89823529593128    0.72064786693294
H          -3.68590168305963   -0.84827079856857    1.56914259641429
O           1.69409572507593   -1.39006785979090   -1.40618346810744
H           1.24536662078403   -1.62257242404332   -0.54734774201833
H           2.56740382840979   -1.07047327523135   -1.16631528834766
O           1.52442185858250    2.29249358298008   -0.93566409522842
H           1.15671557548440    3.15877324873333   -0.75069885549935
H           1.45855570453140    1.77728292571575   -0.08911409640582
O           0.12410747789827    0.48135135521457   -2.01950909024217
H           0.68354643215763    1.30266497559536   -1.75383213493039
H           0.78315305666527   -0.32173364041126   -1.94043096402729
H          -0.50263560027472    0.33228775576430   -1.16776226758856
