    19
        -40.92079110
S           1.12439852780657   -0.13999608303788    0.96072286679182
O           0.74838507023911    0.44763501543307    2.22062780369463
O           0.40940463913119   -1.38814024853695    0.68723015598695
O           1.04135828791944    0.77047678260273   -0.17303326344990
O           2.65514229011153   -0.52911781958962    1.06318954293903
H           2.70596258310183   -1.01026062761476    1.88320821547979
O          -1.86597128355085    0.72205527839820    1.94335604692342
H          -0.91547701927502    0.56717128221826    2.13402680473510
H          -2.16218481619726    1.37763972589836    2.57767849743634
O           1.09530503137857   -0.36608460618010   -2.53626529916678
H           1.27958796759903    0.08220368513770   -1.67717572907178
H           1.05367700946839    0.32410595082362   -3.20127175140697
O          -1.56531216455414    1.04812356294513   -0.65518042602500
H          -1.90836640493718    0.97320938821244    0.26613667522037
H          -0.61384615063012    1.24315037560524   -0.53420286559430
O          -0.98583240402778   -1.27314609900438   -1.35379251110472
H          -0.23919218506641   -1.06404108576089   -2.00878917428970
H          -0.44947412768988   -1.46551917969171   -0.46692878967302
H          -1.40756483081440   -0.31946529782138   -1.12953678942613
