    19
        -40.91469033
S          -0.40440891053613    0.97132594367734    0.89098733121853
O           0.01650609872205   -0.30266959072559    1.42490523566862
O           0.02160007891164    1.02981238662180   -0.60092322822443
O          -1.78695656544718    1.27968382871162    0.99782839849489
O           0.45494301315553    2.08047338629526    1.53388835751667
H           1.37178054411649    1.70625790200437    1.61318398704055
O           1.11656372694684   -1.30399860542953   -1.79253137484511
H           1.08869674378322   -1.16859536047794   -2.74168418989934
H           1.03596774093054   -0.43144789506475   -1.38465779847533
O          -1.19544387654345   -1.93910924216221   -0.44172826566288
H          -0.89344528807357   -1.57725141583632    0.40430466039283
H          -0.38213011975805   -2.04398956512268   -0.96698467164054
O           2.51766384135507    0.51759705817824    1.71308845474358
H           2.90814016216684    0.35719629369543    2.57576523161484
H           1.79569127263474   -0.12840462486095    1.60352302617100
O          -2.14091092548935    0.23206214306448   -1.55689039772499
H          -2.70769137938122    0.63676433462634   -0.88934521005684
H          -0.84250210974796    0.78427343919857   -1.13815686883785
H          -1.97406403776902   -0.69998042662582   -1.24457269748711
