    19
        -40.92179449
S           0.57478530770581    0.22301736645798    0.73816780732191
O          -0.36687111476719   -1.01051887654114    0.65777483563786
O           0.47648129259597    0.94361577587166   -0.51543692583086
O           0.27259680412377    0.99724282431763    1.89409086713375
O           1.95099760199727   -0.42390467123980    0.85177760368351
H           1.98708141560487   -1.19681049793627    0.17416479031223
O           0.94337927576254   -0.53766660251566   -2.67655575394637
H           1.55341911635238   -0.06323976199762   -3.24458260070964
H           0.68386619655339    0.08569201639945   -1.96740805251803
O           1.75052981998976   -2.27203700470666   -0.86218609858713
H           1.50645569660381   -1.74749351652813   -1.66539882840250
H           0.93801008288245   -2.69216395533437   -0.56479641283151
O          -1.74858826912365    2.27592529790041    0.25802492029363
H          -0.98447287847874    1.90368539417984   -0.21386714365119
H          -1.37493397771419    2.85309797894959    0.92911011153194
O          -2.42771778273377    0.09766217654525    1.62785153802752
H          -2.07070694732851    0.35346146019157    2.48401979356265
H          -2.39451243858041    0.91590684565382    1.07491288321537
H          -1.26979918144926   -0.70547224967137    1.02033666575764
