    19
        -40.92135266
S           0.76795793821889    0.08032794634267   -0.43856781380118
O           0.23955413087384    1.40875505565508   -0.73322287425635
O           0.84084099130430   -0.14029494188488    1.01960787174922
O           0.00376497391588   -0.97161643850646   -1.07386438282011
O           2.22190129602024    0.00544590640705   -0.97919963560468
H           2.62512659516274    0.86858025213523   -0.73110060470523
O          -2.24088568414273    0.70267841493386   -0.20563933719400
H          -1.38730719344671    1.13651575618502   -0.43252200426484
H          -2.40664267405358    0.08396209544338   -0.92292774997011
O           2.59762839009614    2.53848364580730   -0.41110814054616
H           2.81612921623645    3.12195723105687   -1.14172737832837
H           1.62790772895859    2.41845879037417   -0.42912264803406
O          -1.20990807487440   -2.78979794985489    0.35902809165509
H          -0.57085078152980   -3.45559099658203    0.62031406844699
H          -0.75752172687498   -2.21963168817620   -0.31053096891570
O          -1.41945966291005   -0.68117034886971    1.77270963741059
H          -0.36808027240771   -0.40735292445659    1.56669882321089
H          -1.91300406571087   -0.08231042644530    1.10383895516451
H          -1.46715113459914   -1.61739937967419    1.36733608079456
