    19
        -40.91955068
S           1.05486617385534    0.16130880231740   -0.47133544264536
O           1.44230290342150    0.52333922442304    0.85134328531979
O          -0.01062189362820    0.94945466016021   -1.04654417703823
O           2.27700153453584    0.20199701790416   -1.41051739316904
O           0.65426965107747   -1.32419414510962   -0.54069704083795
H           0.04188386002154   -1.61157431267045    0.25387394411653
O          -0.63642805093395    0.33309735660477    2.61116138647342
H           0.24448283405442    0.53356068054526    2.25697119023387
H          -1.24199580967016    0.91852283170644    2.11388434385786
O          -1.81412448626075    1.90151319682424    0.74945190451240
H          -1.24106940813115    1.57848717802327    0.03157202472526
H          -1.70423212880169    2.85376201788267    0.77433708046751
O          -0.77034918802356   -1.94992073211522    1.42275398240150
H          -0.82644685256453   -1.09099808157323    1.95179809824808
H          -0.29891377075487   -2.57592696119033    1.97753666399241
O           0.59851457439548   -0.36039639791404   -3.31056321425283
H           0.04252061981781    0.22717337566897   -2.77320367693731
H           1.89611744324810   -0.01331612722086   -2.29913561523584
H           0.29222200433236   -1.25588958427449   -3.14268733422745
