    19
        -40.92217273
S          -1.07159139581122    0.58100262150345   -0.64912362679725
O          -1.87408111130812    0.02538552606391   -1.70069904382995
O          -1.24244532321537   -0.11115722082044    0.63470463549228
O           0.33603113300873    0.76179209736384   -0.95717617357652
O          -1.61424764981446    2.06312377724268   -0.38878801496648
H          -2.50796022202320    2.05382342161674   -0.71855968966307
O           1.29172240476086    1.98989168866638    1.14366614826819
H           0.63799777038623    2.62802564525592    1.43602320082819
H           1.01185999139372    1.70643406842945    0.24300731854740
O           1.78660534140383   -1.42072839617504   -0.38759439084878
H           1.03787554479810   -1.98934830646540   -0.67365937197116
H           1.62514954341849   -0.58904496644174   -0.86724865091084
O          -0.64441273959148   -2.28607207670383   -1.08044118391268
H          -1.20282604008293   -2.56468599100679   -0.35074354777344
H          -1.10485476159194   -1.53003681743606   -1.48572966376124
O           0.93168254166525   -0.47028333477874    1.75767554117733
H           1.24248091794223    0.49486312897070    1.71790518554979
H          -0.05403703805034   -0.38312261184019    1.38801281249654
H           1.41505109271053   -0.95986222345065    0.93876851565920
