    19
        -40.92022131
S           0.23676691775895   -0.17989586024391    0.87741409535346
O          -0.45306136253464   -0.94340407759757    2.00761644241312
O           0.78303240963496   -1.07777390590767   -0.10740096069735
O          -0.68590856397762    0.78487647135879    0.32573970014044
O           1.38479406182534    0.53325020291817    1.60002571687350
H           2.14824448098714    0.63606026615319    0.92241216764780
O          -1.57933334843246   -1.82536635747439   -1.16100220181280
H          -0.65875252353752   -1.71643976441231   -0.86160196276094
H          -1.66119480886293   -1.30747259262054   -1.96482394456543
O           2.94933178388496    0.66667966130101   -0.38284117085250
H           2.36976744901319    1.26208322632656   -0.90961770904259
H           2.74827793910414   -0.22493383660883   -0.69050902592616
O           0.91313254026205    2.06894478319856   -1.40445597682956
H           0.22684010832317    1.64184475355696   -0.85658986095839
H           0.84350148693842    3.01176967655223   -1.23988529190980
O          -2.79127041400228   -0.92424606773305    1.04346715917144
H          -2.54915806381540   -1.40243155460813    0.21783217584113
H          -1.44956374161541   -1.01471139160981    1.77220398522475
H          -2.77544636094343    0.01116637744007    0.81201666266157
