    19
        -40.92158946
S          -0.99563845320455    0.52379118364093   -0.95618804313867
O          -2.06902104443728   -0.33225408720205   -1.38218454469176
O          -1.09399313426456    0.87804194973502    0.46611959120690
O           0.34081780755335    0.04367925757690   -1.27310280111201
O          -1.14126084776643    1.88397421618273   -1.75606710433876
H          -2.08197056834810    2.01800999443986   -1.81989594951052
O           2.30830774408615    1.44745626943223   -0.26599127424260
H           3.13979794865250    1.09378640601322   -0.58825885728423
H           1.59734018734348    1.04778223810999   -0.82047695955286
O          -1.69045530731559   -1.93351346539448    0.71147768574675
H          -1.93481485870634   -1.49072046296793   -0.12469933970233
H          -2.05500684771162   -1.38118772100547    1.40706501151536
O           0.94334297507690   -1.79526264529270    0.56393914487004
H           0.01967031662849   -2.09933359013518    0.73058818664639
H           0.88405973530039   -1.36241138059663   -0.31051436426550
O           1.01253409695534    0.42585070343739    1.68806240008493
H           1.66502599401476    0.92349980050599    1.09012596150804
H           0.07834606890543    0.70059447000798    1.28168624968032
H           1.07291818720845   -0.59178315648451    1.35831500659477
