    19
        -40.92037966
S          -1.00422217232376    0.13955982797173    0.37328548502304
O           0.01857810631072    0.26104138704353    1.39920802783571
O          -1.23468713524411   -1.19591686592103   -0.07699041218734
O          -2.31890486632142    0.72720304039840    0.92721856052127
O          -0.66102628124063    1.06154863897237   -0.78293252798960
H           0.13025636179606    0.66198736747332   -1.40370794839479
O           2.25683955655862   -0.68843099122342    0.26966300406813
H           1.46707176923757   -0.43557837134039    0.78598755524165
H           2.99992954363248   -0.22825023934310    0.66495968082589
O           1.16663542026623   -0.00166537027812   -2.06606251708811
H           1.74549855152605   -0.27080095502687   -1.31756460358146
H           0.73024274643531   -0.83477473956909   -2.37081919947927
O          -0.16016080617594   -2.28295693916671   -2.29260167954031
H           0.31116362135161   -3.06291009014636   -1.99237888564062
H          -0.71152765603714   -1.99581174507686   -1.54109712805007
O          -1.06051790394879    2.44950953922890    2.41647985947477
H          -0.37983726515323    1.78348410460772    2.20469496714702
H          -2.05894376488641    1.53044320402977    1.44442590967450
H          -1.23638783578392    2.38231920736166    3.35823184214801
