    19
        -40.91596182
S          -0.24572846660438   -1.50843691943818    0.12138337056443
O          -0.83512651451344   -1.62473484459445    1.50701353291113
O           0.04511204178742   -2.77042034668753   -0.45833093431683
O          -1.04350276835028   -0.61270532713071   -0.69006665930980
O           1.11763288194190   -0.74653862222247    0.41054993681484
H           1.53033785260951   -0.66488675963359   -0.47137324066304
O           1.23836182757192   -0.90778947800344   -2.23312773777063
H           0.27466051047082   -0.84914646441763   -2.19535458754730
H           1.43560637698621   -1.83573087116998   -2.38990284101899
O           0.06335833068417    1.81966729330071   -1.09299965097750
H           0.70417668853403    1.67212716934811   -1.79163558683918
H          -0.45541954818101    0.99857913814588   -1.01853482645679
O           0.58441667157300    1.83750198266852    1.56244096884926
H           1.16069630446745    1.06641885087628    1.56904206904339
H           0.47495571771633    2.07582062717468    0.62050167281057
O          -1.73731470653057    0.67334700831279    1.87271994115236
H          -1.25406039182640   -0.69372706009022    1.76097156384239
H          -0.90150021045540    1.22171799723831    1.89235704344121
H          -2.15666257765362    0.84893664606378    1.02434595551966
