    19
        -40.92218955
S          -1.09392930114856   -0.06049205976258    0.37363110537564
O          -0.48740842350465   -0.89157227329072    1.41360450476647
O          -0.56942155561793    1.30094598167051    0.40754011505405
O          -0.92328442857709   -0.65428406803811   -0.94840572465790
O          -2.61708779504605   -0.00396517115868    0.68957896992620
H          -2.95848683077656    0.56126935911130   -0.03427335880209
O          -2.54175306020175    1.48776880852907   -1.47706935190120
H          -2.08077325834746    0.73935485207384   -1.87846012482132
H          -1.85303190254235    1.98113081112402   -1.01214704109576
O           1.94635858641672   -1.07855227649021    1.04542157357496
H           2.13939106319190   -0.06298825475376    0.99488752610625
H           0.92022040795441   -1.08507760631421    1.32353766512630
O           1.97819541841586    1.43946894467468    0.86987485319796
H           2.08098574172348    1.94738162840123    1.67756200320582
H           1.01206645244144    1.48643098464286    0.63631403237860
O           1.40230860923996   -1.73505845821284   -1.33038311308650
H           0.50615943683910   -1.30383986129388   -1.29801506874301
H           1.89568836774631   -1.40510945787745    0.06443129522765
H           1.24380246177787   -2.66281189305191   -1.51762988083926
