    19
        -40.90985742
S          -0.70151917066489    0.14644841876323   -0.26942100625110
O          -0.60250567353057   -0.20130197034536    1.11881439026589
O           0.55719189556943    0.14015140777499   -0.97383170019175
O          -1.69333192896280   -0.76931514301432   -0.98248926812351
O          -1.37308324650942    1.53024209209564   -0.43264289338590
H          -0.66556199213205    2.21771288713285   -0.44448458879768
O           0.95265111046348    2.72450636374028   -0.62368042913443
H           1.17419496578027    1.79911282829130   -0.83986369343835
H           1.23959479932940    3.27128870379838   -1.35924756456099
O           0.27541581474677   -2.74965682680887    1.12784311478844
H          -0.24299743545397   -3.27088846430244    1.74449040875857
H           0.04161632427100   -1.81724403393181    1.28990015241888
O           0.48590409787150    2.18056442562792    2.25600619872903
H           0.10300276583918    1.32136314264580    2.04552763021703
H           0.83544181438425    2.54346553674503    1.43785349031588
O          -0.04619933420299   -2.59582158306428   -1.49786451809187
H           0.13085290396063   -2.86841895411648   -0.56614861231395
H          -1.15082454686407   -1.59244430772764   -1.29256382414459
H           0.68015683625584   -2.00976451342573   -1.73819730716612
