    19
        -40.91864564
S          -0.53895851524486   -0.99145172631966   -0.34684260411658
O           0.67293986006930   -1.12220498320754    0.42741076889368
O          -1.69071343564626   -1.66244482463276    0.14622074903889
O          -0.86154294848075    0.53922251471027   -0.45071684313357
O          -0.24545836916707   -1.36051770890747   -1.80033774224111
H           0.74559698424065   -1.14380722973188   -1.96251696925763
O          -0.08789156942193   -0.10208795169542    2.79718871367274
H           0.26427101559834   -0.59048000146265    2.02959200058388
H           0.62385777541084    0.45561773890503    3.11755167184017
O           2.18581043757458   -0.67866153496176   -1.80753139979781
H           2.24828229324640   -0.93387307081774   -0.87708927249817
H           2.08738527845622    0.29817956089766   -1.80774853453861
O           1.30007972262313    1.84215036450695   -1.56292663456739
H           1.01305371160439    2.35309527098422   -2.32229520247197
H           0.49721299771185    1.52956727525589   -1.11561189366312
O          -2.34197531432801    0.62322617301992    1.57710466389985
H          -2.73099233131278   -0.24299926040094    1.40024982130791
H          -1.62775601342914    0.45696551106087    2.23247350183264
H          -1.51320157987603    0.73050387343806    0.32582520566910
