    19
        -40.92113585
S           0.92567728697598    0.32991908182239   -0.67866268527441
O          -0.02602240402163    1.22855062433894   -0.05333270061820
O           0.47098904435797   -1.12378749880634   -0.35995851280491
O           1.08288788170063    0.49635743932678   -2.08097389886262
O           2.26310897220714    0.42367120902845    0.04975495575631
H           2.14755259279743   -0.02332648187619    0.96577493728543
O          -0.38134055132045    0.84690088651673    2.54551346455239
H          -0.35262637207065    1.04985506465845    1.58660626165432
H          -0.24830552655880    1.68008575565013    3.00186034351980
O          -2.33082871683371    0.58560389668824   -1.30625041784887
H          -1.54789033123516    0.98768494349686   -0.88852975899586
H          -2.98341920224906    0.47090331214762   -0.61234144267782
O           1.69352289097240   -0.76017277756070    2.21585380298719
H           0.92363919161030   -0.21836251436764    2.51872194271025
H           1.32389676052791   -1.57504876634262    1.86306085178167
O          -0.92277182677552   -1.38010404081389   -2.44634847200362
H          -0.10648874143709   -1.40547651252380   -1.15697204073300
H          -1.62928959175729   -0.74900072196245   -2.18672306993344
H          -0.30229135690904   -0.86425289941587   -2.97705357049621
