    19
        -40.92246902
S          -0.13267473629750    0.88381748348879   -0.58887725042133
O           1.17711223308281    0.27530761976027   -0.09529150184433
O          -0.63006903071369    0.09708356590674   -1.69343701711861
O          -1.05010336463901    1.05708899339982    0.49653866319404
O           0.31207302235893    2.26983078695102   -1.10478690696803
H           0.88904981651755    2.06106272305763   -1.88155519284507
O          -1.55649127994248   -1.85512409052724   -0.07520318044908
H          -1.32512622361844   -1.27370254651259   -0.81984038185919
H          -2.26461664580854   -1.40957329444630    0.39665588521205
O           1.59694314970508    0.94956497307227   -2.94023503493412
H           2.28723425287923    0.47134674324346   -2.47216243007431
H           0.79554901443965    0.40434572806447   -2.88122426415000
O          -0.65822855767119    0.07988211123975    2.97019819661017
H          -0.93879917929591    0.52379994411304    2.14731900324641
H          -0.25606799894157    0.75454925336217    3.51974966437914
O           0.63414277531744   -1.61186596833050    1.39208632598037
H           0.24656755960593   -1.13369940434752    2.16345733020904
H          -0.14455869592061   -1.95957338391554    0.89290065782120
H           1.01806388889558   -0.58414124766170    0.57370742410583
