    19
        -40.92120548
S           0.05241169490219   -0.80340712143383   -1.12049516872841
O          -0.16564507548301   -0.26383817384071   -2.43430912918808
O           1.31788955022835   -0.37653003959794   -0.52195443514694
O          -1.05068508916046   -0.63454226452929   -0.18886969593034
O           0.18737595602947   -2.38574243300215   -1.29038093154660
H           0.57476121207523   -2.49648977606800   -2.15353396160754
O          -0.19059371478462   -1.74063529746845    2.02390468783590
H           0.27606923687963   -2.54596433782824    1.79299822935837
H          -0.67375422247769   -1.46112967382282    1.21238428737853
O          -0.94411648230063    1.75679798635322    1.00848970985261
H          -0.62815568345845    2.19439094903713    0.18913427943560
H          -1.35553182986682    0.93688281340305    0.67576497349509
O          -0.11066491251457    2.22570393403498   -1.47638581109475
H          -0.07987170995648    1.33551934646073   -1.87735924530852
H          -0.45622888680998    2.81308940413502   -2.15175626468917
O           1.05810182266445    0.48420970866751    1.78208827705974
H           0.24113332359172    1.14331171597067    1.58676034812859
H           0.63331115587323   -0.36505687853916    2.13802040731924
H           1.31419367513425    0.18343013820124    0.80549945364021
