    19
        -40.92120613
S          -1.15901992169965    0.42852135200101    0.61178647999874
O          -2.39561484922523   -0.28588752944349    0.45245832317420
O          -0.17668205413884   -0.28812788931005    1.42578160147186
O          -0.56107859479785    0.91741648914875   -0.62008462611046
O          -1.49775761286256    1.75223842381860    1.43927860801184
H          -2.23636364069182    1.50323165655374    1.98687592375236
O           0.93510805987059   -0.97137605538974   -1.78317745047118
H           0.39048889496283   -0.16334828453532   -1.72955899463064
H           0.30602972992134   -1.67952643747453   -1.52752100906387
O           1.62845105830431    2.11477337931456    0.17388545440771
H           0.76101825052664    1.85171050757367   -0.21161460219123
H           1.42761808729688    2.59923844431059    0.97678999401784
O          -1.12720932555697   -2.30232634709433   -0.75078140704017
H          -1.62149451809277   -1.61439618782288   -0.26448120153489
H          -1.78546797828443   -2.86172264664382   -1.16844510403215
O           2.05807617064722   -0.40359797373143    0.37149771184610
H           1.16159704181502   -0.46798509666573    0.92023811466428
H           1.73326951963465   -0.73100442264003   -0.59173468081494
H           2.15903168398657    0.60216860820835    0.28880687273844
