    19
        -40.92079100
S          -0.78342104074736    1.18400962657160   -0.44096098258775
O          -1.10527071491094   -0.04988796588240   -1.16071594936969
O          -0.30611211339593    0.89630702255870    0.90455794037077
O           0.07486623329446    2.05749219970515   -1.19890994496438
O          -2.15919190524258    1.93919498831107   -0.23658223981823
H          -2.38696933854479    2.22270251724655   -1.11650250552695
O          -0.29830903357213   -2.08099517724790    0.00121252826687
H          -0.81879919966110   -1.95144430517082    0.86307806147217
H          -0.68887772303703   -1.31308367755455   -0.60608838152627
O          -1.43978829821817   -1.14840105320572    2.09364887367255
H          -1.05780651843514   -1.23410918050104    2.96941402603452
H          -1.15704375388285   -0.26883084363923    1.74828731889523
O           1.74567292668428   -0.77271230789438    0.56924539333777
H           0.66883722251805   -1.68931388234603    0.22199795842416
H           1.18136615606518   -0.04363656274616    0.89752779879607
O           2.15783898733807    0.50916764421550   -1.69624586007338
H           1.37803778361228    1.10024606612261   -1.61529933333489
H           2.90148145341502    1.07630421456660   -1.90894150363210
H           2.09348888671184   -0.43300932310292   -0.28872318843345
