    19
        -40.91624670
S           0.74733721327366   -0.47749620706156    0.23904888336143
O          -0.01178323997269   -0.42276962127801   -1.10017413620475
O           1.16598640055239    0.85906109572297    0.58227360964546
O          -0.04026160363321   -1.15535952536063    1.21849312045570
O           1.98059874960146   -1.34236128871631   -0.09120803013456
H           2.64539292096095   -0.74032922697385   -0.51762795503320
O          -2.39415471314095    0.49665958438620    1.24245767716459
H          -2.75237525135068   -0.29443228124624    0.79652636005133
H          -1.64978266886538    0.16225682319063    1.75546721213928
O          -2.37051725344899   -1.89173930472618   -0.06833021893163
H          -1.55528656657982   -1.93297626640858    0.45434671101928
H          -2.09255224391861   -1.79865974272141   -0.98250467407083
O           3.39851745103081    0.69935488007363   -0.82523370341295
H           2.67366381215196    1.11945647311946   -0.32554112278321
H           4.21044060854966    0.86638007799411   -0.34006302577399
O          -1.17865713585007    1.75378608483212   -0.70530367883097
H          -1.78730675647908    1.42510498123325    0.01214206952982
H          -0.45493877058712    2.19782463028897   -0.25029552527396
H          -0.53432096261918    0.47623885327425   -1.09447359284365
