    19
        -40.91273964
S           0.84102370881098   -0.37296089623211    0.93014301515033
O          -0.53186517230568   -0.91461389066734    0.89344684838878
O           1.68887232181701   -1.12227201542286    0.02261095914397
O           0.86846652341297    1.05156753274112    0.70624237966617
O           1.37447134472247   -0.62272494315858    2.38567085134542
H           1.37587128414384   -1.56810079184066    2.50578744484058
O           0.71510905123308   -1.16484244083796   -2.36744628162056
H           0.83458500975531   -2.05217321433168   -2.71250962593935
H           1.20716624917712   -1.13537395945125   -1.50147692600315
O          -0.74771026441589    2.01427434116606   -1.10921599960688
H          -0.14920186526712    1.80871070104037   -0.35005013328668
H          -0.19143451250747    2.37691749099487   -1.80227371970481
O          -1.09287503846450    1.11012301964704    2.73030203855221
H          -1.22142673942628    0.27568744245686    2.26882475197093
H          -0.31576609324930    1.50291263401985    2.32258519224941
O          -1.46042997544369   -0.39356437752853   -1.34039394147212
H          -1.32814063901896    0.63544275592814   -1.33201390923713
H          -0.67073271384073   -0.75734225249135   -1.89656543925249
H          -1.19598248937238   -0.67166713615098   -0.35366750542636
