    19
        -40.92079068
S           0.42000676682563   -0.83150921130633   -1.15743641980864
O           0.41384884966011    0.60817875891406   -1.42383910737984
O           1.74411222228161   -1.34341490562457   -0.91485637374756
O          -0.55314067477695   -1.17753507972472   -0.13056926564522
O          -0.11324030897092   -1.52148461859352   -2.47829598361603
H           0.60698045075746   -1.41010969427677   -3.09095552980816
O          -2.77500011187838    0.21606001560945   -0.16444303489491
H          -2.04860167795818   -0.44339433411883   -0.26588826227483
H          -3.34110172935882   -0.10691867722265    0.53948203170511
O           0.06727160321979    0.35525718790418    1.96034596452282
H          -0.19853935533675   -0.41091760042222    1.41250346219961
H           1.04551651232316    0.39829410156148    1.84494134278542
O           2.55420084294702    0.14895282191196    1.11087753113199
H           3.27686870597187   -0.30967690533257    1.54370187423759
H           2.33997248391194   -0.37478602752836    0.30865458257177
O          -0.88555126949504    1.89305572484983    0.24563228494750
H          -0.29768678618515    1.48422423349590   -0.52799713526607
H          -1.77845048509220    1.43440650803594    0.09463246733786
H          -0.47746604820430    1.39131766165221    1.09350957136629
