    19
        -40.92174066
S           0.55669959079240    0.03044300134549    0.70135725366061
O           0.29391951859428   -1.30762043421544    0.03549493202629
O           1.38797753425085    0.85637630837717   -0.14890087386850
O          -0.67457759245881    0.64265948142324    1.10666403218881
O           1.36428489972155   -0.34837459182218    1.96180946349728
H           2.29238979796058   -0.50813129843992    1.64971161451642
O          -0.71741996187403    1.52884489590902   -1.71119220482746
H           0.15352780568778    1.43315079816542   -1.29175142125654
H          -1.27064345054906    1.97888390068180   -1.06728124837870
O           3.61504726008906   -0.31952149430698    0.66846456214777
H           4.28482586273561    0.30114853398293    0.96655225634160
H           3.02485841238381    0.16846256733260    0.06485366263186
O          -3.08113115385436   -0.35565534880290    0.43309180567296
H          -3.36632242501833   -0.97285721056186    1.10883806943581
H          -2.29795210181249    0.10407854383448    0.79082749837353
O          -1.51645077453343   -1.00195637312058   -1.61724424942422
H          -2.28106185885078   -0.88584953099039   -1.00688770275460
H          -1.28877850183216   -0.08985935010711   -1.91583400255944
H          -0.47919287138840   -1.25422239866117   -0.72857345745111
