    19
        -40.91759258
S           0.15082200291537    0.94253056717036    0.59703371708223
O           0.71311337083867    0.74955017936779   -0.71715444336596
O          -0.75779819465334    2.03372665692381    0.73276395791114
O          -0.57603728333511   -0.39272621942970    0.97481182836720
O           1.25654248874611    1.02729589501794    1.64142208261718
H           2.04926020018008    0.48156112688713    1.27872868242334
O          -2.81479045586126    1.63023217630502   -0.95841763847213
H          -2.92633698574212    2.39683783271575   -1.52383396604876
H          -2.18145270126138    1.89088368350203   -0.26351707771777
O           2.92686658224755   -0.38539862000272    0.38637243229843
H           2.51492312423167   -0.06582282421152   -0.42953200125382
H           2.56579502798803   -1.28161688851122    0.53981501454344
O           1.25744740351126   -2.47369561982517    0.76491576315706
H           0.54617697165994   -1.89126825944537    1.07017025372054
H           0.86421934380401   -3.09037221198532    0.14424579588100
O          -1.54746317025042   -0.68183650392235   -1.33768961368851
H          -1.09077709153443   -0.64495648152718    0.12708128903577
H          -2.21281078327525    0.04071903261591   -1.33781374917311
H          -0.73769985022639   -0.28564354165496   -1.68940234732386
