    19
        -40.91289217
S          -0.33921778327643    2.18571816170494    0.50415732296838
O          -0.39082238221783    1.06284368379990    1.39455829001603
O          -0.73190689538876    3.45880346791727    0.98710807852036
O           1.01774199083927    2.25774564434857   -0.17315150508171
O          -1.32611642790439    1.82029082588214   -0.70673590657560
H          -1.61358370572512    2.66650925376587   -1.04018863673735
O           0.83696926932401   -1.24992443931495    1.57087055586304
H           1.13861332150184   -1.38284619599145    2.47101780164713
H           0.31522608696920   -0.41584362038161    1.57749046856261
O          -0.62133090938095   -0.73948793559540   -1.82075051354822
H          -0.88246023379747   -1.48176231428172   -1.23641267997317
H          -1.14859767784499    0.01842279135669   -1.54766542819160
O          -0.93457594212122   -2.69095709573559    0.02848511132796
H          -0.33961426152448   -2.26989066324579    0.67473194701186
H          -0.53768456536166   -3.53084799781452   -0.20817338179565
O           1.67733997386853   -0.05945694757784   -0.77205096278171
H           0.89398533589241   -0.35548510921570   -1.31457408428810
H           1.35579899460688    1.28273390750389   -0.43927014315201
H           1.63023581153552   -0.57656540728205    0.05055365609568
