    19
        -40.91503880
S           0.23108232246401    1.55122609108707    0.69042085716505
O          -0.85432298515506    1.22585698789272   -0.27580325542399
O           0.85765496650622    2.79616775195787    0.40936015442669
O          -0.19816621440003    1.28419705250519    2.04071275978343
O           1.33534263504794    0.40601480301432    0.38778750310362
H           1.91503836490135    0.84107593910178   -0.23446820277993
O           0.63951056155404   -1.75217303985731   -1.33247672239541
H           0.71227734067080   -0.94624727140018   -1.88697392875234
H           1.29385987433464   -1.63489165326675   -0.63514650401055
O          -0.71694821464997   -1.20430652785952    2.37597607598349
H          -0.42245576646150   -0.24995660926753    2.34037068368806
H          -1.37408872808024   -1.25132381710363    3.07375052223043
O           0.71091749320295    0.75469338659232   -2.33244084826883
H           0.07457454857526    1.07807753193138   -1.65973128733387
H           0.48247336985338    1.18422752990585   -3.15822751516510
O          -1.46128539261121   -1.14740527043939   -0.03126579140997
H          -1.22210159458334   -1.30705812062612    0.96444224488370
H          -1.31760804153328   -0.09148458542636   -0.14518442876068
H          -0.68575454978156   -1.53669017874915   -0.59110231702734
