    19
        -40.92246920
S          -0.53244112585839   -0.57147073916937    0.73170426443657
O          -0.50096281438045    0.54264866911835    1.65049806482964
O          -1.03723433912985   -0.08339151304028   -0.62352529359016
O           0.70567266891792   -1.27544888138126    0.58636954157008
O          -1.63353997893699   -1.56384772777423    1.16472308641324
H          -2.43011674252532   -0.99190155241193    1.30001130246916
O          -3.17187062511156    0.52641228601742    1.32857545829919
H          -2.34406018730550    0.90746816369231    1.66415086574377
H          -3.27193082105464    0.84250462490929    0.42623829829446
O           1.77507648050917    1.53885263278370    0.59353394072987
H           0.98492309382997    1.34605777627588    1.12669247364481
H           2.41788652032467    0.86231711030781    0.82101499786302
O           2.12476462243518   -1.36694286825984   -1.69508229250764
H           1.89610718057602   -2.16072208613769   -2.18147498966481
H           1.72479551655206   -1.45973035516636   -0.80949454601272
O           0.85121024789217    0.95397279667090   -1.81835484881555
H           1.40913788459304    0.16162892634590   -2.00446383912847
H          -0.24901922792450    0.40204406828050   -1.21816213949293
H           1.28160163682611    1.38954867964573   -1.04295434510074
