    19
        -40.92343652
S          -0.55032692578556   -1.39141899420727   -0.77880542512248
O          -0.61443301055622   -1.94041261992502    0.57663921406350
O          -1.66827314730337   -0.51645127160959   -1.06025182171481
O           0.73276649328504   -0.75989582839797   -1.04336018831351
O          -0.64689200833349   -2.62223012688589   -1.75743654213788
H          -1.48309599362750   -3.01169937651157   -1.52168698875455
O           0.72360586034244    1.89482006873260   -1.03400983445049
H           0.72688143951027    0.92382445342736   -1.18544043510715
H           0.55324350674142    2.29848211525242   -1.88606685072831
O          -1.35466317227440    1.46919582527793    0.61435463013548
H          -0.64225669752605    1.90625435173158    0.10243342581078
H          -1.69930325887520    0.78208304119007   -0.00446826527371
O           2.13903691513767    0.28718905263059    0.96828840377815
H           2.19266285547362    1.18155889241855    0.61378591867857
H           1.85272203109240   -0.26882920852585    0.21394099750516
O          -0.10087317229020   -0.06697918313698    2.12400322503685
H          -0.34658932372398   -0.94194315924143    1.60620546183874
H           0.87095065352686    0.10900762632522    1.83938468447669
H          -0.68516303478654    0.66744432145848    1.61249039022519
