    19
        -40.91821031
S           1.58799540503778   -1.07845166716242   -0.50666289976305
O           0.42621714068607   -1.96583825062925   -0.32545320442684
O           1.28435330004557   -0.03420538283016   -1.47371975525397
O           2.10131788194853   -0.57253636642669    0.73997674321279
O           2.70493357876114   -1.98645699541872   -1.15194260974802
H           2.27478761462857   -2.31538317617413   -1.93539212441676
O          -0.18541336902730    1.87461648679537   -0.59880505205282
H           0.04878806007303    2.65848247941026   -1.09851366326034
H           0.39372310141081    1.14442587788492   -0.96491569425637
O          -2.54307380328316    0.61326015496415   -0.45678703655429
H          -1.73566398816666    1.14148997037437   -0.64437431679935
H          -3.17994126047680    1.20513816292512   -0.05210307053621
O           0.22383674493465    0.81056179064185    1.89905510409602
H           0.09462848956981    1.45940810339591    1.18575058421401
H           1.05837007560708    0.34112315643308    1.65701332336387
O          -1.31525748965010   -1.00998813693284    1.12775620138921
H          -0.59547666979778   -1.51762743813097    0.51375792549605
H          -0.73154899832001   -0.26640827429763    1.59871079669763
H          -1.91257581398293   -0.50161049482949    0.48664875859640
