    19
        -40.92079082
S           0.38173016342168    1.01051913830293   -1.02090531471143
O           1.39398143366967   -0.02223553548881   -0.79068567645205
O          -0.38129308727701    0.77852244784366   -2.22005897878215
O          -0.42767068640276    1.22597868763026    0.17045167480563
O           1.17976834265959    2.36183922916023   -1.22530767387858
H           1.61073105256900    2.23813488117227   -2.06524061882621
O          -1.40059052793434   -1.17703577121793    0.79242767745452
H          -1.49302275271275   -1.55432929927395   -0.11393173961828
H          -1.32583838681737   -0.21361525574342    0.63771329757133
O          -1.36133900746530   -1.63966068181000   -1.80187989718498
H          -2.11745256068834   -1.75556563453865   -2.38046805963900
H          -0.95900560397137   -0.77832103704422   -2.04724124267825
O           0.84673677866945    1.01742991174449    2.45345862563229
H           0.40764825437052    1.29872035128145    1.61618697164540
H           0.22374754423702    1.19348999457925    3.16136453715845
O           1.03422995473846   -1.26853598107829    1.31739569286954
H           1.09495701681554   -0.47534233586927    1.94777846542324
H          -0.01369805197943   -1.40466093876628    1.17311284242024
H           1.30638011392569   -0.83533219086407    0.39582942666229
