    19
        -40.92135406
S           1.34143370057153    0.05938915163540   -0.79557938510926
O           0.64995494155453    1.05923409822208   -1.57937003661377
O           1.23118634760795    0.27701047754815    0.63820257856347
O           0.94192968409225   -1.29950282737855   -1.16371674381255
O           2.87766224345109    0.17837883294277   -1.13618992102751
H           2.88786783700396    0.13819333893208   -2.08752268139649
O          -0.25424869162323   -1.46534458187303    1.96385981528419
H           0.36614164599244   -0.78534345557060    1.61567031226059
H           0.28259192341885   -2.21288689884753    2.23342148895886
O          -1.83976771210770    0.78654388525335   -0.81012117758641
H          -1.70547250669352    1.28291087797563    0.03232846815478
H          -1.00762071319482    0.96638098029084   -1.30820406780373
O          -0.71697100953940    2.03583933665029    1.23056475599389
H          -0.43084946740052    2.92313272178898    1.00676214033842
H           0.06661759553107    1.46179778723792    1.12487733371160
O          -1.38231168642892   -1.59622551990168   -0.32173034868410
H          -1.13188614687760   -1.62738861969964    0.66437642388669
H          -1.72619158906002   -0.57949337875917   -0.52711706493879
H          -0.45006637619798   -1.60262620654045   -0.78051191010594
