    19
        -40.92174055
S          -0.74179519573189   -0.17747742521617    0.46735659635110
O          -0.89125648100192   -0.78834904456006   -0.82080910340297
O           0.60382010889728   -0.53138100553516    1.07346915814221
O          -0.93208505726041    1.25761982740107    0.47883267535040
O          -1.75378921527008   -0.81655727723877    1.44292778354352
H          -1.81197167187712   -0.19773801032050    2.21630743877485
O           1.12212995550843   -2.08439143911121   -2.04985627361019
H           0.29070891101117   -1.69029537800601   -1.72410944671216
H           1.10156213502360   -3.00911772000926   -1.79800613151840
O           0.64419521362561    1.57516642497185   -1.69881470638099
H           0.05091864303222    1.69251406993044   -0.93860625421149
H           0.14508632630211    1.06843917265412   -2.34480836541732
O          -1.74645832135628    1.26218015412915    2.99785500665557
H          -1.35290688121820    1.61653463585114    2.17903782790772
H          -2.58212578723594    1.71807480721142    3.12635167946829
O           2.33981129530184   -0.17929515265683   -0.64925564200070
H           1.94296674932999    0.60377953720924   -1.09868274362385
H           1.43000473977815   -0.37957085347670    0.38329499094795
H           2.14118454323421   -0.94013533325452   -1.24248450019118
