    19
        -40.92136405
S          -1.34547946665056   -0.28522438746158   -0.17694107425498
O          -0.42322543948158   -1.03082615576234    0.64963408763030
O          -2.36973726241695    0.41420880823727    0.55830773712903
O          -0.61941661629618    0.60000959135192   -1.10458739886096
O          -2.07891416610941   -1.34319962229000   -1.10637745195516
H          -2.93049357594550   -0.95199391050832   -1.27898478985633
O           2.14721455113716   -0.60376372594286    0.37622990967540
H           2.17058930986505   -0.83632731013884   -0.57837626323636
H           1.28319088766891   -0.97722235641670    0.66516710100055
O          -0.54683777542300    1.36285639505094    2.20779699786597
H          -0.34173674044449    0.57228373704453    2.71471421718178
H          -1.34467545247646    1.13160410023805    1.68002949482485
O           1.20625385813284   -1.11895875914293   -2.06258875897053
H           0.76350083397360   -1.96415580964772   -2.15601658648244
H           0.50414955085264   -0.46476453363687   -1.88549013062266
O           1.14839244305855    1.66283702345015    0.32405683553742
H           0.57864862826912    1.68784735238410    1.17444086837866
H           1.74315660923486    0.74544827170798    0.38523201004012
H           0.45541982304997    1.39934130150147   -0.38624680509350
