    19
        -40.91915208
S           1.08944508762369    0.03276048424868   -0.58699282917876
O           0.01943472633174    0.91716567527646   -0.98922894842586
O           0.92254588640707   -1.33982296290979   -0.92350662211575
O           2.42571357557092    0.55921664991856   -1.14447280265585
O           1.29719118919976    0.20406657652274    0.93421057306175
H           0.54072422287583   -0.27096454345825    1.46186196534774
O          -2.48214887323930   -0.14508335809463   -1.18502388136676
H          -1.60333806074601    0.26897564152397   -1.24492804569702
H          -3.05564605993930    0.49409213401498   -0.75819642055748
O          -0.55810083874945   -1.01173889302732    2.11359951571102
H          -0.99112125312043   -1.54146801460426    1.36769612159492
H          -0.19547987286184   -1.65958128119002    2.72239111094361
O          -1.43700308413558   -2.30021825616207    0.06571196607048
H          -0.60206663767178   -2.27968630425159   -0.42763792005175
H          -2.01840677084708   -1.67699357125215   -0.41361826140466
O           1.68850129280944    2.88413026626730   -0.24828484775914
H           0.83281533902068    2.52903213872493   -0.54060471373876
H           1.70317552516183    2.81399831673134    0.71020885638810
H           2.42376461632031    1.52211930172327   -0.91318480616629
