    19
        -40.92071442
S           1.15798617396797   -0.39457236813572    0.83665827805733
O           2.00358242754936    0.66871414779105    1.32851875203880
O          -0.18347193506519   -0.37683599888326    1.37253519602120
O           1.12579358691487   -0.42573018529959   -0.63918726875363
O           1.83007645677646   -1.75469051726712    1.27785370484679
H           2.76239675760635   -1.55726234577804    1.28440445057773
O          -2.20097140064657   -0.24779484249271   -0.30665478693709
H          -1.98864221300324   -1.01859419928878   -0.87432794507570
H          -1.65621799540961   -0.39815051704314    0.50004562110343
O           0.09999597288519    2.45003380023947    1.09372076081183
H          -0.51676760402280    2.12920593223041    1.75830022064712
H           0.92782177763128    1.93472636057778    1.24339592081729
O          -0.76136249794547   -2.04028449194401   -1.65315620910362
H          -0.55548705465824   -2.23295490145834   -2.56914947009760
H           0.02126223223312   -1.58825308012979   -1.27967017699510
O          -0.54121349033774    1.39537077174860   -1.12658991725019
H           0.22158460101679    0.70923545453209   -1.09615926578726
H          -1.39678025719154    0.76529610496643   -0.84850826052170
H          -0.34958553831229    1.98254087558571   -0.30202961448748
