    19
        -40.92343661
S          -0.97299248496011    1.12571666338557   -0.79402911030202
O          -0.00843026517804    2.03098001482357   -0.20668916584227
O          -0.45658968513580    0.48918261928164   -2.00657969295974
O          -1.46995976591988    0.14515493391671    0.15821113073208
O          -2.21984325460114    1.97925639392050   -1.23991712789569
H          -1.84323343555695    2.58829717485067   -1.86743635227431
O           0.09814402182038   -0.30499347644607    2.25283450000659
H          -0.07452424794597    0.25523066953991    3.01068510253348
H          -0.56284597463843   -0.05499473047239    1.57000497341384
O           1.97400361654525    0.47547738121144    0.49573626684664
H           1.39495992604941    1.22502896608970    0.21846280738576
H           1.53348251743466    0.12683685773676    1.29887359741778
O          -0.44127560537453   -2.31687108112711    0.18810979780882
H          -0.15724315883597   -2.30867183742794    1.10879629747059
H          -1.05562139534011   -1.55805505481157    0.10451001054953
O           1.27438290815780   -1.13408198434834   -1.27326742093493
H           1.72498320772001   -0.49751935227315   -0.54183398850841
H           0.67160210428082   -1.77619189134137   -0.74353154087474
H           0.59100098146368   -0.48978227649525   -1.73294008458898
