    19
        -40.92136386
S          -0.38014015844498   -1.19938040733993   -0.58282558000685
O           0.86028832516089   -0.49669841140141   -0.82249885101415
O          -0.22636107727544   -2.45707255217786    0.10528280142912
O          -1.36256004527399   -0.31901015915385    0.07373574578024
O          -1.00323104332162   -1.52100538504614   -2.00745864762233
H          -1.50013557115790   -2.32229472425631   -1.86884449544826
O          -1.14765868236813    1.86313141764505   -1.47449749500744
H          -1.02826504232761    1.55064853834687   -2.37294496432249
H          -1.39986013901850    1.08116907773971   -0.94808530070435
O           1.08058825388729    1.98716796809510   -0.01904724040936
H           0.31491363651827    2.31374410793629   -0.54153695484176
H           1.26762123986496    1.11566002369998   -0.43739468276960
O           1.34622111470572   -1.30184767209845    1.87646200670833
H           0.76437479973185   -1.88189082995990    1.33467798870643
H           2.14255393011826   -1.18184008800902    1.35149843676959
O          -0.04319547908833    0.83872675915012    1.86665845812844
H          -0.75160820642408    0.41478157548506    1.25606859545170
H           0.57247625234282    0.04313166881627    2.05732586664067
H           0.49397791236867    1.47287912252637    1.15342431253280
