    19
        -40.92135380
S          -1.29373670414999   -0.43068374519581    0.75918584517562
O          -1.66952426346575   -0.99131987923629   -0.52007230552177
O          -0.34077697382722   -1.28170833484384    1.47310302072041
O          -0.81807861676852    0.94068339367214    0.66747590629082
O          -2.59661207484989   -0.38000162543273    1.64809989980243
H          -2.93059499582309   -1.26950725649820    1.58525707099592
O           0.56991460778735   -0.89755271659573   -1.87869796183340
H           0.48885593131961    0.06592693499385   -2.07670379828637
H          -0.31827285467501   -1.12479854446484   -1.51529508603371
O          -0.22930391204347    1.62194848546013   -1.86828129010111
H          -1.03905468668103    1.75213211946071   -2.36488318341498
H          -0.49603500578575    1.51267552465529   -0.93469445754119
O           1.76183796148668    1.30483511938429    1.12278074446047
H           0.78698647727097    1.32737963677937    0.98880961633272
H           1.91204060468278    1.43571287883221    2.06077218718217
O           1.81885734340087   -1.09233923095762    0.24963956152734
H           2.01652311283432   -0.13588733770986    0.53676466037025
H           0.98152910342823   -1.31954901905393    0.82196673017442
H           1.39544493584685   -1.03794640315588   -0.75522717037183
