    19
        -40.91898037
S           0.26804563492756   -1.22549744020702   -1.04339712516298
O           0.84842664654965   -1.24251977568777    0.31096989794836
O          -0.85405055485905   -2.11775815373026   -1.16982586589689
O          -0.00844411829744    0.14256377680860   -1.45131807215310
O           1.41072359855890   -1.75429315585019   -2.00299182947732
H           1.30682281915709   -2.70200579754327   -2.02007538862578
O           1.94602431280964    1.31552739526849   -0.11153200347046
H           1.29124370310824    0.99271912096757   -0.76489678539552
H           2.32915358256776    0.51506167672656    0.26010151341382
O          -2.36559856833848   -0.11448115632459   -0.26255710826542
H          -2.32232556618715   -1.04492263407681   -0.54154916943213
H          -1.72390483301018    0.30987360938749   -0.86212094214204
O           0.19630746189647    2.18267565333388    1.61935955660640
H           0.95856529286387    1.96197952576749    1.01129272668777
H          -0.34465821564838    2.82434176977108    1.15431970065495
O          -0.82673546559304   -0.12165517084752    1.75312757203923
H          -0.07425678672881   -0.67225064636534    1.25488300513755
H          -0.44482313970216    0.84845175980176    1.81053040906256
H          -1.59051581408006   -0.09781034724813    1.05567990850702
