    19
        -40.92079118
S           0.58444405550161   -1.33200044608598    0.30176806555540
O           0.96767023592416   -0.42465321152150   -0.77098922076245
O           1.40209325382762   -1.23064414520398    1.48307689592097
O          -0.84550325808056   -1.22369484936130    0.59732672099585
O           0.79711551390133   -2.78350934896984   -0.29216539042650
H           0.67286148444763   -3.35068978237967    0.46244582636590
O          -0.81732704594836   -0.09636190687468   -2.66436489508436
H          -0.06865182622201   -0.36417965684865   -2.08066526719799
H          -0.45294533220182    0.50283332521831   -3.31894392111347
O           0.16911499578451    1.98583433439012    0.04092296242289
H           0.30084735558935    1.88158300590199    1.01258621494115
H           0.70253084371066    1.26218516475270   -0.34581053240419
O           0.66335407959009    1.10479924007256    2.47542234745785
H           1.35528565589179    1.40506347582193    3.06777517727955
H           0.91423681606288    0.19628411170948    2.20050754029069
O          -1.91049116019873    0.72272547874226   -0.49995751087563
H          -1.69857727964142    0.46260480574413   -1.45802072868076
H          -1.59636225052969   -0.13146685382671    0.03181068307097
H          -1.13969612741590    1.41328725871142   -0.24272495773404
