    19
        -40.92136394
S          -0.19223195908239   -0.61773395909959    1.22706080842362
O          -0.38834936615102    0.14604558966248    2.43422798121049
O          -1.20533687652773   -0.40656336837043    0.21765829274560
O           1.15616939509202   -0.43397013990594    0.66207413108003
O          -0.26488461767160   -2.15196596037173    1.62916915747318
H           0.03474703502095   -2.17015598042535    2.53367769280776
O          -0.81858200930240    2.31475809360035    1.00115245116028
H          -0.65581392626682    1.62557935402235    1.68464742328147
H          -1.69409929678885    2.12349325408752    0.65333224386133
O          -0.45746885006140    0.28598359566260   -2.19561258829168
H          -1.00613348940765    0.01719782062581   -1.42338550440471
H           0.10773682824548   -0.50501549936759   -2.34013923780087
O           0.93705944396338   -1.89802307681307   -1.57702223089365
H           0.40981367280613   -2.66634237532417   -1.35147190297765
H           1.16013261067117   -1.46589679171395   -0.73090978460359
O           0.96347091270313    1.66222647935506   -0.70438867898196
H           1.25218119253669    0.85233161896168   -0.14368571912116
H           0.37769030276017    1.17324967682174   -1.49034718104842
H           0.28389898755681    2.11480164749689   -0.08603733383277
