    19
        -40.91451097
S          -0.34770504425853    1.47723250538130    0.28230776377259
O          -0.21222995864292    1.86867843865714   -1.08527837673813
O          -1.57721713848548    0.60522150284265    0.46041952174359
O           0.78817523698072    0.88515293178214    0.92022864940370
O          -0.69564499789715    2.77910153895004    1.10845685835980
H          -1.27224666131838    3.32568514074595    0.57774102498513
O           2.45764605809689    0.46847068157161   -1.22055029011544
H           2.09850364649455    0.60339603596169   -0.33063360548529
H           2.23484334653326    1.26115398201558   -1.71492202788372
O          -0.42205653827174   -2.75648244480601    0.09231331957668
H          -1.18882239797196   -3.22629773376469   -0.23989422192491
H          -0.18106955012433   -2.10090646795883   -0.60125448619660
O           0.12953162688531   -0.83872888289488   -1.68739513248482
H          -0.29971173276270    0.02307958847045   -1.70348097650432
H           1.08561060221744   -0.63744782538065   -1.65968025425718
O          -0.75123712860468   -1.08248752887913    2.05251202937829
H          -1.33776427058110   -0.14167545810578    1.19860323941926
H          -0.62746749632939   -1.84431272644250    1.41474463903899
H           0.11886239805716   -0.66883327813754    2.13576233591409
