    19
        -40.91915212
S           1.13083163406427    0.44770579438222   -0.23142720580851
O           0.54641852740776    1.41133180556241   -1.10029754052901
O           0.82063136824521   -0.93418868268509   -0.51958411293295
O           2.65991389035642    0.63026877606701   -0.18495638623482
O           0.73922780525253    0.72326332299600    1.23729590875243
H          -0.29070328479568    0.80457020554007    1.33117531896356
O          -1.55835065396247   -1.46073856304446   -1.73940776582917
H          -0.65146261086797   -1.33474002210595   -1.40920731746515
H          -1.92030855069887   -2.20952810712742   -1.26204286766178
O          -2.16875145542758    1.11353368417265   -1.19004294382091
H          -2.16688899330920    0.19459011171948   -1.52435707522312
H          -1.28598523635511    1.45145336538060   -1.40792794200068
O          -1.76119082906401    0.94146693731492    1.34590634495369
H          -2.02602170140850    0.99229446663857    0.37032922052674
H          -2.00408103889113    1.78696077825389    1.73054093451996
O           2.69783849456410   -1.49032879686086    1.31630128470967
H           1.97987496882136   -1.72133241556912    0.70391186792926
H           2.97676830209634   -0.11158976525418    0.38930352429384
H           2.28223936396592   -1.23499291539085    2.14448675285984
