    19
        -40.91833240
S           1.51171651804264    0.82955252682905   -0.07502350596003
O           0.23298257474388    1.40143470068483    0.29792826408354
O           2.29287576576033    0.33625336873587    1.03169457404417
O           1.35608880684670   -0.18306054065002   -1.13112945103726
O           2.34121349987574    2.00717660141099   -0.73415980475788
H           3.22914427034467    1.66335539371429   -0.75612979623487
O           0.14217323760794   -0.55824769349974    2.25454653872773
H           1.03936122639825   -0.36071866468184    1.91058783237105
H          -0.29019818104272    0.30045884688043    2.27064836381785
O          -1.24373591584842   -2.09465968815860    0.65153652133219
H          -0.86280343225422   -2.97205816424755    0.72000990826388
H          -0.74212490205513   -1.52578035751525    1.29968504304718
O          -1.89876508658901    1.34554226913898   -1.17323628468616
H          -2.63978801145056    1.43407103552944   -0.57026989256949
H          -1.08269367622162    1.54181909741938   -0.64554810870430
O          -0.92386656913166   -0.96250972454033   -1.59948592609271
H           0.09934216695184   -0.64669111991255   -1.47882430752183
H          -1.11841119700176   -1.47539592403076   -0.72742648182675
H          -1.44251109497250   -0.08054198313311   -1.54540347628987
