    19
        -40.91790592
S          -0.26946082957190    0.77480671794303   -0.61692578185043
O          -0.24794209654905   -0.65254064894692   -0.81046790366153
O          -1.37933892899367    1.25883144865472    0.15255763600151
O           1.03875402583821    1.25227154325671   -0.01401154583558
O          -0.26187877572276    1.46962785803062   -2.01423289065336
H          -1.11211726962165    1.20494838129276   -2.42367446346455
O          -2.56919574255040    0.22296283758197   -2.14594176487987
H          -2.85073792735546    0.61887414196835   -1.31310961431082
H          -2.15489471192910   -0.61586542104953   -1.91538558167157
O           0.77716668325081   -1.94474020090957    1.37216768914257
H           0.41860259901711   -1.30033111269993    2.01017410030113
H           0.22688978011323   -1.83104706435015    0.58252915679055
O          -0.28691897588927    0.31463669453135    2.47046210335586
H           0.34021537287057    1.00349538086431    2.70080044494691
H          -0.84870669334009    0.68400157064135    1.77164270774081
O           2.64700669736862   -0.64687976874949    0.14786305843720
H           2.06545405613185   -1.23541442659946    0.72368349635720
H           2.68779852869078   -1.07490374867380   -0.71117598886115
H           1.77930418826574    0.49726582716071    0.03304514203274
