    19
        -40.92174070
S          -0.11043561685411   -0.22314504826725    0.86020181594490
O           1.32955600981923   -0.10414109996011    0.94961070887889
O          -0.71245478374469    1.07704536214966    0.35985890438943
O          -0.56955303624843   -1.32825726104944    0.07102194003755
O          -0.68337294737757   -0.35760506435273    2.28775798689604
H          -0.13943401603071    0.24765228686923    2.85534259646010
O          -2.02248239803197   -1.00147157584203   -2.17059800840912
H          -2.95387732812971   -0.99759239350004   -1.94415764140152
H          -1.54405660717804   -1.28705774799513   -1.36922486856010
O           1.21436269911442    1.08839532061913    3.31076744937498
H           1.77364332600860    0.67496156625957    3.97334084213303
H           1.58332625959050    0.85103915039632    2.43993084530390
O           1.61775120083244   -0.46505933180136   -1.71753733879619
H           1.74769234899112   -0.33033327115639   -0.76431132113174
H           1.25460573898871   -1.34974781927114   -1.81016510878135
O          -0.45810597782291    1.14796860236639   -2.09673688412300
H           0.41385333325323    0.69251166719210   -2.16649788887757
H          -1.12183069885269    0.46625698580880   -2.35180171749897
H          -0.61918749632175    1.19857968152514   -0.71680230182468
