    19
        -40.91885168
S          -0.73522910083332   -0.02510581757734    0.98385201913834
O           0.22483975660302   -0.98797886493114    0.36045049626269
O          -0.10473064043917    1.27362576916137    1.09264391573982
O          -1.97951325567013   -0.01572016467758    0.25516595127300
O          -1.02008584391779   -0.57532046423193    2.41006495917769
H          -0.12694609488270   -0.71455380287534    2.78462963502343
O           1.53235460729145   -1.23033560499558    2.64279230775745
H           1.30942662166388   -1.21797098425709    1.69240886639496
H           1.69010234120862   -2.14761078181298    2.87819618487098
O          -1.86002471995157    0.01916716953435   -2.33217955709153
H          -2.03349152306857    0.09376932270722   -1.35650832047738
H          -2.35686157566587   -0.74478663632518   -2.63250855589094
O           1.12926344101031    2.11155404599888   -1.00598071764145
H           0.61002827368923    1.92604876690156   -0.17437665596242
H           2.01980657160184    2.32534855509021   -0.71955796669167
O           0.62610559429484   -0.17269819350971   -1.93760947078488
H           0.91206745815967    0.79784473505102   -1.69994975604933
H           0.51570347507295   -0.61757083056622   -0.97637680712244
H          -0.35281537617039   -0.09770621870564   -2.26515652790621
