    19
        -40.92246929
S          -0.41177751803580    0.68945354554899   -0.70698982601828
O          -0.87721173486258   -0.40350919432155   -1.52875414417446
O          -1.17412552772670    0.92474251554796    0.48172796719472
O           1.05957238978043    0.46463473174886   -0.36787896448821
O          -0.37005611512231    1.98345978374596   -1.54886128836127
H           0.11661024071677    1.71865210409989   -2.36926983594546
O           0.88885073524320    0.55323606441750   -3.31849935177364
H           1.73182166561772    0.32965642366965   -2.91406457148856
H           0.24862367420511   -0.10568071308026   -3.00386072258849
O          -1.09787061203818   -2.08256764969511    0.57421603593021
H          -1.11402727862394   -1.65044343950851   -0.29689719937155
H          -1.80612008116255   -1.67852880273326    1.08183522065193
O          -0.21282733024393    0.61281144328520    2.97329098781709
H           0.10109277152436    1.45611305976354    3.30380542370197
H          -0.70277798965524    0.80234961322452    2.15068531013761
O           1.17827531285947   -1.11396970966703    1.52043125746113
H           1.19719296080502   -0.23868979058371    0.46587755607750
H           0.81318444235813   -0.55816111540700    2.24922526672076
H           0.43157000436938   -1.70355887005980    1.25398089851124
