    19
        -40.91898044
S           0.28831988528935    1.14671473619561    1.12360655895709
O           1.69064808780830    1.39550995454762    1.33225864780899
O          -0.17371754555888    1.42998373366635   -0.22563520901047
O          -0.10380620263368   -0.21797776801674    1.51685784642968
O          -0.51610928617918    2.11480220300002    2.08392813956206
H           0.04568301606457    2.23764892246508    2.84457556600101
O          -2.34380855165322   -0.08000048995021   -0.18344728482999
H          -1.66632992413452    0.62223815223347   -0.27162062787644
H          -2.25683465468051   -0.38508544593625    0.72482396638152
O           2.09117913817236    0.34850370177570   -1.08702486392968
H           1.28125883916793    0.88272786911876   -1.18477052457836
H           2.48122915958775    0.71542188967239   -0.27502085809159
O          -1.11780958107583   -1.82733877565128   -1.68449826046953
H          -0.99873076308766   -1.40757769119209   -2.53892123285384
H          -1.71785630436495   -1.22710176455846   -1.15634607395768
O           0.91039942177962   -1.70665415796453   -0.18543732664762
H           0.10767402621529   -1.86925217742882   -0.83285522677379
H           1.50937237057033   -0.99013872105409   -0.63076741839409
H           0.48923884854156   -1.18242416093079    0.63029417223339
