    19
        -40.92037952
S           0.10526902720490   -0.15747070493308    1.05991184370934
O          -1.07452600943365    0.61740409537946    0.71247764287548
O           0.10890035601892   -1.44581343543888    0.25659297621684
O           1.33922713049772    0.54724753976332    0.91778751786171
O          -0.04376942347220   -0.64019342168931    2.51781701461598
H          -0.99597777302728   -0.89026710363417    2.62330108250520
O          -0.71662290469089    1.29078004367805   -1.85887727671909
H          -0.86622052748820    1.18467633544580   -0.89956053738730
H          -1.58316189793648    1.36913361377540   -2.26303536160382
O          -2.63550044599094   -0.76854482052992    2.33532461616694
H          -2.37789160473343   -0.19612819629018    1.58850767954709
H          -3.11749714587622   -0.21833408753627    2.95765453195452
O           2.98698139165422    0.37924803995181   -1.20355419383587
H           3.08633434457044    1.27886521089035   -1.52239482618436
H           2.56100334130620    0.44929457947123   -0.32896741865838
O           0.81667821790402   -0.88480312897172   -2.04616008475077
H           0.25779316925080   -0.08798265274847   -2.18812153227399
H           1.72971735797784   -0.53913323746682   -1.89106784551064
H           0.41926339627945   -1.28797867916240   -0.76763580852839
