    19
        -40.92218946
S          -0.81899240451298    0.68277678552729   -0.45042320748380
O          -0.50416497482609    1.03377691152589    0.93070955524789
O           0.38872660424391    0.64356847228208   -1.26882125780943
O          -1.55481195509837   -0.57939229651219   -0.52556369510336
O          -1.76361127051504    1.77683186993928   -1.02789336743029
H          -1.21671396184010    2.58603747095941   -0.94877310414520
O           0.21579473054401   -0.98373503540428    2.39193518810306
H          -0.41554099173247   -1.03685726733876    3.11270652916705
H           0.00351157302446   -0.14444294788890    1.90148576135546
O           1.65323979714078   -1.61879682780038   -1.18277408809374
H           1.27027136950231   -0.70219614388637   -1.23943457308377
H           1.66920259897676   -1.95586945319460   -2.08114947598575
O           0.33547693952218    3.24883483948707   -0.43631432652636
H           0.83147665218579    2.60357872822730   -0.95734039159863
H           0.26329379247929    2.85302106850542    0.44234197759237
O          -0.17593939257367   -2.42644107481813    0.35777205500923
H           0.04292817412959   -1.98866296534465    1.26970625410142
H          -0.87486489240316   -1.73464836826916   -0.04639617849426
H           0.65071762175505   -2.25738377599957   -0.24177364485568
