    19
        -40.92246905
S          -0.90288518732748    0.03705967273366    0.57410838888289
O          -1.31445236812749   -1.24284059175998    0.04607237114432
O           0.52985267053987   -0.07485217210344    1.08868460511881
O          -1.02982368353261    1.13853553408526   -0.33169489852243
O          -1.70072945039838    0.34224795249673    1.86075855672230
H          -1.60951874795856   -0.48352573309460    2.39911724490126
O           1.04799869619272    2.55038858618681   -1.28899423323627
H           0.19243881586239    2.16722487826051   -1.01695662968565
H           1.18357012905244    3.32770658065754   -0.74463030379658
O           0.07426514236171   -0.90899606850228   -2.24477206723751
H          -0.50079465812191   -1.21647694092797   -1.52312805682180
H          -0.39271550900298   -0.18065663643147   -2.66185972325814
O          -1.04798046406857   -2.06564133729595    2.59428944125499
H          -1.20134651795132   -2.22134628767677    1.64812580048471
H          -0.09459225373144   -2.04346207415694    2.71590786612301
O           2.05449452204279    0.14108259891476   -0.83440987708153
H           1.27510852206397    0.00534477538194    0.28333209277590
H           1.51599960773615   -0.36158793605462   -1.49297279786923
H           1.92111072447465    1.08979519911845   -1.07097776979014
