    19
        -40.90970465
S           0.86040406204024    0.97873540916901    0.10483328615586
O           1.24792964257458   -0.16447865905344   -0.70355455653523
O          -0.57816733303086    0.85591115362009    0.47819317131604
O           1.66209243445781    1.12231495066995    1.29633296135979
O           0.97575287334143    2.26763964664274   -0.76016394941100
H           0.28308372464027    2.17175757469837   -1.44709229882399
O           0.79047320402344   -2.22880062223382    0.91526535337759
H           1.24077743656675   -1.60067044713904    0.30565758706103
H           0.02472687449170   -2.52892483717926    0.39889034944804
O          -0.93075500536421   -1.72621457923728   -1.14870416416160
H          -1.54239799257697   -1.44918825886044   -1.83189765993615
H          -0.17924545867753   -1.10929893867543   -1.19506162633807
O          -1.30173918266565    1.56589373802940   -1.95284343798952
H          -1.30755592930134    1.17968655002019   -1.05509633782801
H          -1.99321577410757    2.23148840034617   -1.97019798398477
O           0.03903964135388   -0.44330338474995    2.46978839403873
H          -0.48849690621910    0.08339038754697    1.72436049849524
H           0.33752568670680   -1.33690495682095    1.92288501084441
H           0.85976798287549    0.13096688377752    2.44840538282393
