    19
        -40.90976895
S           0.95505006850911    1.03960953764081   -1.35622784557922
O           0.41236984859057   -0.10966539401472   -2.05722077446750
O          -0.08147047354235    1.90999720050459   -0.83220243591228
O           1.91841244865928    0.65056362979179   -0.32473447065868
O           1.78337037146252    1.87687258513225   -2.40520624459196
H           1.13530692292472    2.09980153195972   -3.06669934099313
O          -0.19994071612445   -2.05484162663052   -0.48381274800451
H           0.23704573978634   -2.84427744621396   -0.80846238306330
H          -0.03029448376844   -1.34154446712465   -1.15937041556504
O          -2.11709480590008   -1.44061445506273    1.56538518134288
H          -2.16651660128710   -0.48302304715220    1.48774663230992
H          -1.86178942928585   -1.77694857776870    0.70103679479634
O          -0.96324743004673    1.18861398852082    1.47784245870690
H          -0.87899984865618    1.93703974218824    2.07139326304380
H          -0.71114871486921    1.51872999030482    0.57151377838571
O           0.78815800541420   -0.66826637037018    1.41930129511866
H           0.35578066987796   -1.37711970189819    0.82184063399728
H           1.38959422798151   -0.11136898174192    0.73163433149328
H           0.03541419028007   -0.01355815806578    1.64624228963978
