    19
        -40.92246919
S           0.07642591659451    0.90021242468379   -0.57413089034974
O           1.50033370205780    0.95032316746061   -0.33651906718992
O          -0.29611678321321   -0.49558774730507   -1.06698222279032
O          -0.74007575938556    1.27737012123355    0.53978953159577
O          -0.27379593866221    1.79095533570452   -1.78608712600050
H           0.36955387297626    1.50824640980712   -2.48340880774618
O           1.67636882767707    0.56632563705012   -2.99376795832090
H           1.38495461536563   -0.34497579218742   -3.08773170539292
H           2.05961806442852    0.64288692712845   -2.10476794363078
O           1.30695614573439   -0.37453767016525    2.00725472342984
H           0.82439724472010    0.25062457895053    2.55382267520467
H           1.59519496526268    0.12357267978374    1.22320707074839
O          -2.40618513651937   -0.40163034550742    1.81772407584784
H          -1.88191009327751    0.33606992564329    1.45200119252690
H          -3.28795533514788   -0.31695545147070    1.45120600760590
O          -0.48439354623956   -1.97539870580190    0.89372718129263
H          -1.29667590161977   -1.61251028452927    1.32062366599624
H          -0.39187652520406   -1.22120284874418   -0.24545564548317
H           0.26518164447179   -1.60378835175112    1.41949524268378
