    19
        -40.91359128
S           1.29481292136822    1.30617844315211   -0.73343956619003
O           1.51886982517400   -0.10752565023723   -0.58608813668250
O           0.65970740634213    1.69595852525885   -1.95311349848928
O           0.57191562412204    1.87055787376081    0.47215314547272
O           2.69507048711257    2.01169644282455   -0.64226710403712
H           2.56396254291244    2.91644354132832   -0.91841914394885
O           0.42563270395037   -2.33661415522070    0.60660373142201
H           1.03951894409341   -1.63743949048007    0.33400609186555
H          -0.10774309912081   -2.52785340255817   -0.17004577810975
O          -0.91709931688598   -0.62797958782694   -1.63816114341961
H          -1.02122080233902   -0.01931406355664   -2.37492549941899
H           0.02441777811140   -0.56944908785114   -1.40237328233952
O          -1.19840812978144   -1.11877337891915    2.35362501720623
H          -0.53564318456544   -1.62682544551308    1.83317095575876
H          -1.85990125817997   -1.74665340471129    2.64772757603424
O          -1.61896578394341    0.75389312928897    0.55385707877523
H          -1.56059675815715    0.19935976335706   -0.25821679873016
H          -1.54200671477139    0.12658085311637    1.32026604684042
H          -0.43232319543405    1.43775907478278    0.55564031800672
