    19
        -40.92135406
S           0.85777180431824   -0.84717515534549    0.99143240536279
O           0.70784737460056    0.35175011799181    1.81729838028892
O          -0.31605624765334   -1.69065427008253    1.04166582808262
O           1.26674279772579   -0.51296973486663   -0.36371338328701
O           2.05213403080800   -1.66858733184639    1.61521691275181
H           1.70240288631149   -1.94456399610541    2.45677344626538
O          -0.67098362305362   -1.04739349556259   -2.15204398226417
H          -0.73162004256159   -1.99400197491181   -2.29136759805171
H           0.12649997799730   -0.90241132963836   -1.60634081676302
O          -2.14432565010277   -0.21737086294298   -0.12081095194633
H          -1.65029225759283   -0.86621336822087    0.43400900736566
H          -1.82182288447535   -0.41405653662291   -1.03263903067381
O           0.91997774646264    2.00825973998908   -1.08702752176968
H           1.69096601287485    2.52508671604908   -0.84596823395005
H           1.15744164603084    1.06468334117099   -0.93932051007168
O          -0.94125460511081    1.80449183426445    0.64730508683178
H          -1.58484373889866    1.00141820245388    0.27967264713169
H          -0.29549878207275    1.28860574265174    1.27702112175918
H          -0.32508644576757    2.06110237657217   -0.12116282398227
