    19
        -40.91234293
S           0.47179286704951   -0.18614049586159    0.01834014763609
O           0.55222435627240   -0.47930700371314    1.53501492890472
O          -0.80359803528391   -0.65351109357405   -0.46061423274758
O           0.77909104122469    1.18689868824532   -0.21819036289901
O           1.59255578733162   -1.08415452581407   -0.54540520255244
H           1.24543922511814   -2.01838678612444   -0.50471665823069
O          -2.11676079178368    1.59202403758329    0.30534534946407
H          -1.86476754310940    2.22483090223630   -0.37182187988932
H          -1.87207014691356    0.72056229820842   -0.04703377929743
O           1.01544990464718    0.62602235294940   -2.93747948425753
H           1.75069231837251    0.01202778839747   -2.89370474653451
H           0.96617744993589    1.04988895011427   -2.07407105214898
O           0.10353615423586   -3.17137233206557   -0.22797457760729
H          -0.58893088613274   -2.52382505125743   -0.44170437703844
H           0.00231006820517   -3.39177483685910    0.70180029909487
O          -0.43206012992299    1.69786730922731    2.36687176740399
H          -1.19222745106122    1.73458974599179    1.73682322714850
H           0.17695984257187    0.33785317391605    2.02789554910893
H           0.21418596922667    2.32590684837362    2.03062507440527
