    19
        -40.91904996
S          -1.14378498227072   -0.04095807410000    0.22594587782684
O          -0.93709320859808    1.35075185822880    0.53936765586573
O          -0.48196674536006   -0.31185533305297   -1.13883796519150
O          -0.68482562799710   -0.98653514113186    1.18988575033706
O          -2.64957102592494   -0.27658298671734   -0.04964517378201
H          -2.90738179358560    0.44031136608573   -0.68083863902342
O          -2.50789599622833    1.80894836779225   -1.60458420105727
H          -1.91769289192895    2.09847050142139   -0.89048576728763
H          -1.94190484349489    1.54536875257789   -2.33534361916111
O           1.36502837632362    0.86076812074400    1.91153535325551
H           0.60604342537787    1.25353736339013    1.45138362644668
H           0.98713236840930    0.18069273134865    2.47619924753449
O           2.89600876137511   -0.53611760723974    0.20133948187633
H           2.41939459960624    0.00229469461317    0.87254166900995
H           3.29388879528405    0.08390748231091   -0.41148504441261
O           1.02730492965376   -2.21623843643388   -0.59733815409367
H           1.84182929995257   -1.70504555034092   -0.35464611996027
H           0.58561775692721   -2.40595234312256    0.24044915006757
H           0.14986879247872   -1.14576577637569   -1.04544312825065
