    19
        -40.92003351
S           0.59381264283681    0.51913547813596   -0.38607192127934
O          -0.76885598851641    0.98128207388891   -0.30822650862677
O           0.79125288341468   -0.76426458949690    0.24511905480334
O           1.05874120783235    0.45136743305534   -1.84264466668564
O           1.54903236079117    1.56068758689455    0.20052536819333
H           1.36768068217683    1.70087585910194    1.19607466227361
O          -2.02618266693729   -0.87584326118187   -1.77539285923141
H          -2.54038459665375   -0.45084726606168   -2.46494315256029
H          -1.69646339096112   -0.16131809705617   -1.19693805587573
O          -0.84476932383148   -0.14307800415360    2.29141273218675
H          -0.29104034552237   -0.63780130606629    1.66225127084568
H          -1.50187145630930    0.30101261968158    1.74589584760870
O           1.02049518432781    1.66861336266734    2.68638598026173
H           1.72789890291848    1.26048609885398    3.19173130457349
H           0.25528075280115    1.03597915421754    2.70675397795152
O           0.37566876636845   -1.94619174951616   -2.24319531093147
H          -0.58928616882659   -1.76256544060667   -2.19204103958370
H           0.88619032076656   -0.50975039691302   -2.15986735242048
H           0.63280024332477   -2.22777954544085   -1.35682933150127
