    19
        -40.91790575
S           0.48103320972465   -0.82588441192530   -0.37264644756547
O          -0.02166331076539   -0.50802224729846    0.93940147526156
O          -0.52021397914362   -1.22889172811165   -1.31758675486969
O           1.29526710733198    0.32831620633309   -0.92746609810197
O           1.55383417737264   -1.95134096903300   -0.23814456304691
H           1.05525030337371   -2.72730315172639    0.09329852787061
O          -0.56747065136807   -3.25019884828559    0.60408316207621
H          -0.76244535428002   -2.55564563374920    1.24290578428038
H          -1.05256592972722   -3.01972746136194   -0.19655231278894
O          -1.41602883311105    1.33809095187981   -1.57771577959722
H          -0.79218401641095    1.71344035382486   -2.20284659290371
H          -1.27568194449347    0.37885792490756   -1.59979113587775
O          -1.04218565922663    2.02921583466365    1.03558360425048
H          -1.36493166070591    2.00902423196097    0.11566464490976
H          -0.95668109193760    1.09519842449250    1.27946383438386
O           1.53103572721444    2.11110527328894    0.80083847713476
H           0.54446189131822    2.27090715877837    0.92977035044638
H           1.83999135825442    1.69795794825369    1.61122195241302
H           1.47117866657286    1.09490012312561   -0.21948209827180
