    19
        -40.92037965
S          -0.08978264570134    0.92241649675092    0.54916143611077
O           0.38644620176399    1.54043954760871   -0.64697381715386
O          -1.35239188005967    0.21737488263781    0.40143502516889
O           0.94397653738756   -0.02504363803509    1.13115937767865
O          -0.25806140903059    1.99353171426096    1.64688654233229
H          -0.81530147682232    1.57458971972249    2.35000333549610
O          -0.87686191969760   -1.66579563217588   -1.44767491366930
H          -1.45008072957071   -2.41122165391570   -1.25773624855454
H          -1.15913714306300   -0.94091150450128   -0.85704235753574
O          -2.00855813889427    0.56688198204153    2.93822265595313
H          -2.86821798495418    0.97948175176802    3.05275907550753
H          -1.99840907809064    0.17136210985370    2.04640388847086
O           2.22343400985973    0.48759097534870   -2.30877836442748
H           1.64961153402982    1.04361553407876   -1.74949558266895
H           1.79803252937773    0.44881280238773   -3.16799408147780
O           1.67688016795023   -1.53392798205401   -0.68652872980302
H           0.79671469860558   -1.75995178195430   -1.06308344884685
H           2.07639099280794   -0.89177098191132   -1.32325257576226
H           1.32531574424024   -0.71747434189897    0.39252878325153
