    19
        -40.92113590
S          -0.35418717124921   -1.11366149524533   -0.24533555677461
O          -1.02156009400555    0.09970659410608   -0.67738507522363
O           0.84889452231257   -0.69023207359061    0.64621653349113
O          -1.17606433177338   -2.04046111389082    0.45081710094755
O           0.33504889839300   -1.76452937552258   -1.44064137956385
H           1.13944550254434   -1.17859220638194   -1.69020993685902
O           0.54054970802769    1.86226911281002   -1.89326244791799
H          -0.11551731538668    1.30021668174795   -1.42939964476886
H           0.14796806119235    2.09615278600861   -2.73664650138103
O           2.25359304957490   -0.15088894319061   -1.80368241060151
H           2.61744073240454   -0.12882269243066   -0.91365772567217
H           1.75582704357315    0.69598001353660   -1.91782705178324
O          -1.81932113342454    1.18004159399183    1.66596166288000
H          -1.69981051545673    0.82504496250267    0.76659979069035
H          -1.55012880067739    2.10048625457256    1.63544280193096
O          -0.43608151166390   -0.79897124531822    2.81388485877511
H          -0.94986384221557   -1.56238781697225    2.52039230659091
H           0.49279966572825   -0.71163527125174    1.60576617158289
H          -1.00903247790302   -0.01971574547316    2.64296650365046
