    19
        -40.92217227
S           1.15421193303975    0.60820173896975   -0.45010339692721
O           0.02078534356492    1.25193505621711    0.19058406005161
O           2.41085151675857    0.73630501827156    0.23040880230251
O           0.83218967684016   -0.77736711744384   -0.81433060109717
O           1.30760008035210    1.37252745330473   -1.84717183456757
H           2.24726053359483    1.40859179693746   -1.99990625458334
O          -1.20824114839259   -0.36302321131269    1.94305076158777
H          -0.96955188245192    0.51389442132540    1.59388060556086
H          -0.33859358006527   -0.74361448501525    2.19686777845523
O           1.37324803982240   -1.05477447422029    1.95058449009209
H           1.57891737457994   -1.86030298531582    1.47026265730644
H           1.85461535846705   -0.34680156049194    1.48710915008081
O          -1.92912915313667    0.94270431722039   -1.52307508978373
H          -1.56801633533203    1.05608166279189   -2.40443462146957
H          -1.24218335676521    1.27775068760343   -0.90202658378269
O          -1.54026356727520   -1.29942476487511   -0.34832147935555
H          -1.53463471902304   -0.99747833846051    0.67759533063206
H          -1.93262086078083   -0.51549072395334   -0.85961968911334
H          -0.51644524378293   -1.20971449155806   -0.59135408540174
