    19
        -40.92246923
S          -0.84188795755382    0.10490455374922    0.65184234602807
O           0.03556111322008    0.31091676813825    1.78053479654799
O          -0.96046692607929    1.21975761976518   -0.23841904638805
O          -0.39394710868288   -1.14324604636562   -0.10435413630093
O          -2.24548858681193   -0.29295784675799    1.15821050162454
H          -2.06824061901458   -1.02014920684639    1.80619216893443
O           2.00808720525893    1.33501632969796    0.24770529777942
H           1.43626863880552    1.02517043082044    0.97080919809580
H           1.61653165476793    2.15431692307858   -0.06525357655229
O          -0.99739346999097   -2.01413106758773    2.65531765533935
H          -0.61361209629270   -2.65062119292654    2.04557980096774
H          -0.37345847997994   -1.27179187247057    2.70780740258268
O          -0.12412613753741    1.19984062984993   -2.79350348217755
H          -0.50493809012038    1.36435591554635   -1.90990206352441
H          -0.85705357195989    0.97134827421254   -3.36754768749517
O           1.48367777500593   -0.51672390523224   -1.57165825171971
H           0.45168996910262   -0.94607161543518   -0.77922502788148
H           1.01958284575990    0.05019301725645   -2.23273206034544
H           1.92921387208808    0.11987227149103   -0.96140383549723
