    19
        -40.92120617
S           0.28615043903326   -0.51113411818728   -1.24845528739693
O          -0.05690571948987    0.20749423378896   -2.44465969133990
O           1.37648655693477    0.10737453133291   -0.49357351170673
O          -0.83212540520724   -0.83917097840541   -0.37916776284159
O           0.85517431288478   -1.92949114137920   -1.71357257834729
H           1.24921894357133   -1.75617049052061   -2.56326804682979
O           0.27669243313758   -2.10539115225020    1.62735590336739
H           0.95235263153080   -2.68752832936899    1.27482455490937
H          -0.25640512414465   -1.80485980008909    0.85553619807368
O          -1.40400790950948    1.19266852446943    1.26601728717009
H          -1.21156263464266    1.85785298095741    0.57098255216654
H          -1.56868725473578    0.37923910761963    0.75268826296978
O          -0.70332604843574    2.36795905064132   -1.01814966242558
H          -1.18956616349734    2.96727168103176   -1.58828650508892
H          -0.42293816325708    1.62104820999514   -1.58169805792689
O           0.86279695599941    0.37269843760059    1.91132093310561
H           0.68525170125179   -0.61407269316279    2.06415421462669
H           1.20355544651738    0.36018222363068    0.91479867566998
H          -0.10215499940512    0.81402974239810    1.79315252209298
