    19
        -40.91864549
S           0.44427861327008    0.97933048985686    0.48715989573160
O           0.95774089379500    0.57328156404683   -0.80005538065731
O          -0.06589155573719    2.30217939241181    0.58580001100923
O          -0.69800217332796   -0.02416010861553    0.86952024536902
O           1.49728457467686    0.69540217286584    1.55733999564862
H           2.05570579861479   -0.09649042034475    1.21563233287458
O           0.31707062509987   -2.58884608529856    0.85238047496866
H           0.13988526845388   -3.01101282992571    1.69529196654579
H          -0.18492841623965   -1.75790962234645    0.84446134942013
O           2.60077365107158   -1.25688596172659    0.39723421252906
H           2.40001010502613   -0.84949783576868   -0.45624135206748
H           1.91133338144399   -1.94301095242390    0.53122878694273
O          -1.19984375746818    0.88299547217618   -2.37609146496727
H          -1.24760034135839    0.12034659321338   -2.95616734227727
H          -0.33206426832281    0.84166358403301   -1.93204424161307
O          -2.56307372371410    1.32855070411748   -0.13174088904171
H          -2.17783413224343    2.17045697002937    0.14334479082632
H          -2.28666578090407    1.21132481051251   -1.06843038985280
H          -1.56817876218126    0.42228206316975    0.54137698863983
