    19
        -40.92135405
S           0.37897250503909    0.55194485311072   -1.41022519494383
O          -0.49380507354790    1.64736358848770   -0.98552387570656
O           1.70307962400981    0.66080066650170   -0.83859758922828
O          -0.24079286174098   -0.74337084369555   -1.17942274710512
O           0.53156035426366    0.68777393811258   -2.97498402756028
H           1.02506247649380    1.49652795203180   -3.07020852358490
O          -1.00435999170363    1.24201816438680    1.41741091223560
H          -0.83397053961965    1.57545472757544    0.44814784361088
H          -0.02336755242295    0.84837340630524    1.69497180430256
O           1.26732972642233    0.30794937128808    1.72071061618727
H           1.62192743295427    0.57284234009235    0.83922785226493
H           1.18693356041392   -0.67259544029344    1.64216677288634
O           1.03907170907097   -2.13403283829791    0.73575209997652
H           1.86712610746003   -2.47301922993757    0.39146085611072
H           0.55895145515009   -1.75936027495474   -0.02833323611910
O          -2.28694714184803   -0.76384356595810    0.49748333149452
H          -3.10059147154873   -0.58751263695189    0.02159581680083
H          -1.58732364281323   -0.89588489740891   -0.18194517323048
H          -1.60885667595793    0.43857070966402    1.26031244160876
