    19
        -40.91335394
S          -0.93985329886837   -1.18064661615368   -1.15427148644960
O          -0.64265299278080   -0.01831813491347   -2.11994632765674
O           0.27065884828773   -1.88464897993029   -0.85568036551689
O          -1.72209325762590   -0.73732602662236   -0.05075750030550
O          -1.82604695679551   -2.09748335003137   -2.06313093119959
H          -1.22436560177968   -2.53912159690384   -2.65831853650835
O          -0.95590649560355    1.52306630411224    1.27251364241762
H          -1.49937882423231    0.78993445530795    0.94307164163546
H          -0.37750756426076    1.11630132665075    1.96064194442925
O           2.10408911531873   -0.34249733668489    0.46840788886132
H           1.94000925708177    0.47481807228710   -0.01571485813712
H           1.58387685614179   -1.02782205376442    0.01873522474312
O           0.71006911341236    0.04430876415302    2.73340650824323
H           0.33462812251517   -0.81448624399726    2.93401094660073
H           1.35778903901220   -0.10388854946038    2.00861966950210
O           0.55616364522448    1.73307286931769   -0.76080849297960
H          -0.13345543108111    0.71740039018491   -1.61588970053383
H           0.48517506847130    2.61479510280298   -1.13314355946940
H          -0.02119863241784    1.73254160364472    0.08825430233637
