    19
        -40.91966023
S           1.16046749051830    1.22708593481034   -0.28256412601401
O           1.79344037288233    0.56493937300766    0.86840084956231
O           1.32081034125408    0.42894556555588   -1.48823536165850
O          -0.21140408959517    1.57641267576321   -0.00879194540836
O           1.95780525883969    2.56593660940652   -0.50557343086784
H           2.83554441687212    2.25989553464459   -0.71227015141850
O          -1.78978951329841    0.15474139741515    1.69184298414474
H          -2.24691960333382   -0.06358334894589    0.84329131991570
H          -1.35508913290738    0.99920249390720    1.48811041328400
O           0.10924158955669   -1.78697730519475   -1.06119388729813
H           0.58392663130689   -0.94386359080178   -1.31864911641132
H           0.58956206197470   -2.50505622823152   -1.47758794178834
O          -2.19447603493437   -0.11862224079263   -0.90332698535746
H          -1.59063231582948    0.64209931702316   -0.89493935098321
H          -1.67154448539394   -0.86280352895541   -1.22310200518631
O           0.24883165488119   -1.26496005621502    1.46173424536829
H           0.97770138169509   -0.50252924430854    1.32095906991789
H          -0.65742873339165   -0.72542972083815    1.66974802083093
H           0.13995271890146   -1.64543361724733    0.53214738937430
