    19
        -40.91624657
S          -0.68363159551262    0.58886550025695   -0.17121452826612
O           0.79155402920101    0.85714514027649    0.18111055785463
O          -0.72894405970833   -0.23800472370051   -1.35169128556092
O          -1.37388796073474    0.08321113066202    0.97188877493537
O          -1.22837381719485    1.99417867779942   -0.49766431037511
H          -0.97582674965255    2.18747705236433   -1.43846847351372
O           0.50243590478711   -0.02760303084997    2.99549820540147
H          -0.31024076612961    0.16603349732681    2.50386559469449
H           1.17501923594253    0.55257241989433    2.63142213724644
O           0.17708462410651   -2.27929456260828    1.49691089817569
H           0.45592917023740   -1.72720809539765    2.25219001126286
H          -0.68781617953508   -1.92932407084308    1.25484711756602
O          -0.59721337614512    1.82032659634821   -3.00554840204728
H          -0.55921331936190    0.88922574492891   -2.71708282457400
H          -1.31309773154780    1.89022217881008   -3.64209453629884
O           1.68131707223532   -1.39270619030747   -0.45341297810581
H           1.30792890467212   -0.00949153018487   -0.07042963333664
H           1.24270732575373   -1.89492950218520    0.28699423243070
H           1.12426928859724   -1.53069623258877   -1.22712055748771
