    19
        -40.92007397
S           1.02837472915123   -0.81161503440711   -0.48015337108725
O           0.83659433567108   -0.48178233528874    0.94670894476235
O           0.54588400411872   -2.14060639968762   -0.78160288185333
O           0.51151067761911    0.23177070088830   -1.32594435080663
O           2.60021742460205   -0.83508584356533   -0.68705991413976
H           2.85174422329948   -1.71153406526818   -0.41141301561721
O          -2.01990206953072   -1.74133358448030   -0.54859545621549
H          -2.42663400124358   -2.57692312002168   -0.30874944338023
H          -1.07207440545461   -1.93972048539683   -0.75090385996929
O          -1.59352408529699    0.11686092224198    1.14242536732857
H          -1.94802829573242   -0.59051896301428    0.49953879816215
H          -0.60633995472138   -0.15153450841186    1.24630562209618
O           1.38484841330077    2.15163949630304    0.81172198453879
H           2.01708611328730    2.23618236720927    0.09530079114264
H           1.31007808072110    1.19536952587474    0.98877476454968
O          -1.04282017132496    2.06746399858560   -0.27121203680700
H          -0.27224967620219    2.42860693273375    0.22552853241598
H          -0.60896631639110    1.50328105518226   -0.94972980270051
H          -1.49579903595115    1.04947935050761    0.55905932727791
