    19
        -40.92218953
S          -0.13686721295361    0.47942214453196   -1.04469846003949
O           0.69513770471747   -0.71891356047391   -1.08498189197339
O          -1.41155816498476    0.20971597527348   -0.38727030967773
O           0.56517402528098    1.59471461441319   -0.40970126045257
O          -0.42716806644157    0.92002514520826   -2.50913145799759
H          -0.89297664430861    0.13838953180297   -2.87256328611587
O          -1.32366682936769    0.39690193350868    2.19739768121841
H          -1.44386819776125    0.25058773728932    1.22052912784622
H          -1.94929791611007    1.08220006335219    2.44213990756784
O          -1.49700226855233   -1.48407227747054   -2.53251857176985
H          -0.64060381084431   -1.78013610543036   -2.19666572138729
H          -1.97916376421503   -1.18568111835935   -1.74993151612733
O           2.09491053583027   -1.10891194660087    1.06220158774080
H           3.01553146940035   -1.10436715742871    0.79143925349679
H           1.56104092343952   -1.07378749977642    0.22310483464956
O           1.10272324932877    1.04133005605515    1.93541318969315
H           1.58749654046363    0.14746902807304    1.74103148411420
H           0.93847718422091    1.41087369938787    0.95261166359893
H           0.14168123280376    0.78423974668259    2.22159373568755
