    19
        -40.91923801
S           0.31120410542263   -0.91933993955613   -0.06971628848757
O           1.28100166082426   -1.44856688127455   -0.96783169446305
O          -1.00694681620324   -0.69477875928602   -0.61218908557585
O           0.19650605578131   -1.76444848574991    1.19719815078180
O           0.83916053148056    0.44524389779167    0.48648787881335
H           1.40141958979382    0.86460501382145   -0.26638389021830
O          -0.08121806640101    0.42183672147998   -2.88246431043692
H          -0.59567651383133    0.08029862420837   -2.12940813616811
H           0.12375691331144   -0.34368829097463   -3.42436291004395
O          -0.89253447986914    1.37975461354323    2.43647845231281
H          -0.39778378695960    1.54169421669236    3.24210966028971
H          -0.24226664004598    1.22854911731587    1.73277967410077
O           2.10569555441326    1.16602646560636   -1.56798382277011
H           1.33626946324104    1.08688383603344   -2.18245605987956
H           2.60663257449914    0.35111813432669   -1.68408597118254
O          -2.08680506866351   -0.95621417992732    1.89068712563511
H          -2.31869559752108   -0.82380297601631    0.96107793232890
H          -0.72533420533166   -1.54860518134429    1.60472130668302
H          -1.85438529413193   -0.06656593660784    2.23534199818554
