    19
        -40.92315432
S          -0.16956426544955   -0.88221757583448   -1.44064667082145
O          -0.15891764908902   -2.03152792816913   -0.53181448361687
O          -1.13299016081223    0.11764285597576   -0.97587081688908
O           1.13082674830786   -0.31218339740257   -1.66941806962071
O          -0.70616013365905   -1.43965310610830   -2.81229028431484
H          -1.36321649695301   -2.07105547837290   -2.53628437306679
O           0.06583203913814    2.24297169335801    0.07482786347550
H           0.30480821079610    2.91511095224106   -0.56497547005574
H          -0.38729742398335    1.53340950777547   -0.43265919981979
O           2.00707186604210    0.49399460342787    0.66887248698713
H           1.45867789079067    1.30727511642466    0.64151156966455
H           1.94873729081609    0.15194829820426   -0.25212522406823
O          -1.57065418878835    0.36214972337186    1.63023927953951
H          -1.64725343528855    0.22238740518458    0.66072395588750
H          -1.31497284336007    1.28535476654683    1.72948794812063
O           0.46265515415977   -1.16075625646974    1.71274249806669
H          -0.37529838236726   -0.58578952620426    1.87350380069369
H           0.22835021507329   -1.67203301429079    0.83250578088025
H           1.21936556462252   -0.47702864967553    1.39166940896034
