    19
        -40.91892060
S           0.20284648223621   -1.14549097226049    0.16190733278972
O          -1.20650120066873   -1.16212003240277    0.44412737806625
O           0.57778314126051   -0.91293241284157   -1.19980498010872
O           0.86424451728350   -0.09469233120988    1.07386172685277
O           0.83421651392861   -2.47691066863448    0.63854992303931
H           0.50194369916294   -2.59514971667169    1.56318773129143
O          -0.43093961406304   -2.04674318903508    2.87369689372950
H          -1.09984552893128   -1.72324479803833    2.24941063991921
H          -0.01895025854270   -1.26751753024646    3.25727497959914
O          -0.35653660058598    2.72503284164808   -1.11648854390182
H          -0.95372964436896    1.97039539660536   -1.32432472840925
H          -0.47698711696427    3.36735258394310   -1.81797972458446
O          -1.70773039739004    0.49177852020523   -1.71959798304100
H          -0.94268017167357   -0.04514546456664   -1.96866745844512
H          -2.04495367322542    0.05569963808144   -0.92712056778697
O           1.89940780778482    1.43844422316812   -0.60738934009679
H           1.37331541892052    0.60023028694024    0.48587163341624
H           1.84550148343046    0.76754636949206   -1.30007043709142
H           1.13959514239647    2.05346723581556   -0.76644447521882
