    19
        -40.92048091
S           0.22543976709988    0.71098334044033    1.42120471879386
O           0.03727029465704   -0.63067371353931    1.92919751113692
O           1.30280842381258    0.75104428335668    0.42029531108742
O          -0.98009198338806    1.32483546436118    0.90286707229733
O           0.71253680530100    1.59114640330092    2.64279830973656
H           1.14384549091021    0.96096135022891    3.21253274101184
O          -0.11184159074097    1.47091829723378   -1.65166686484032
H          -0.82370768291004    1.90828206613252   -1.16811181580213
H           0.57552834065918    1.33563782517437   -0.95435707182855
O           1.58859422170444   -1.51786233015283   -0.81782734179054
H           2.37831113093828   -1.43138754382353   -1.35599051788649
H           1.56788034037277   -0.72664171303085   -0.22081002342634
O          -0.68180978397560   -0.98176988361968   -1.81197473240470
H           0.22866104102813   -1.34817013495473   -1.50589718298313
H          -0.51417813027524    0.04844950088276   -1.88859124655976
O          -1.98365010133939   -1.02172814793585    0.32347547452512
H          -1.31612586404012   -1.09118824489941   -0.96332734661022
H          -1.31826831105649   -1.29315333448247    0.99044347278293
H          -2.03120239873758   -0.05968349482273    0.49573953278950
