    19
        -40.92123224
S           0.74387610198435    0.79183381845623    0.53200628038146
O           0.02325666201932    1.56187460875023   -0.46193885884335
O           0.01611862649109    0.50727734553683    1.72557956497817
O           1.24022170686843   -0.49121211209684   -0.13440771283170
O           2.05609929389984    1.52291149474989    0.88442965314414
H           2.46912806521896    1.71447177935908    0.00678745672541
O          -1.27632174305718   -1.80226053055694    2.21969601386325
H          -2.18232523424663   -1.55668757864076    2.41902300603897
H          -0.76274952388663   -0.97331046667213    2.23800476889120
O           2.41969535237625    1.66096528335337   -1.69003560416716
H           2.54080942716259    0.73823999087954   -1.93224024094779
H           1.46177897106878    1.80877172686701   -1.63332499790643
O          -2.17505805411402    0.11852935826071   -0.96174571152707
H          -1.46952558189629    0.76064077520622   -0.75084954228072
H          -2.56117406097827    0.39955829201612   -1.79373121708101
O          -0.69394710071897   -2.00960598058961   -0.34670005610698
H          -0.92573037146250   -2.15900557374343    0.60471320365969
H          -1.36352102453535   -1.36842014197381   -0.67533398069975
H           0.43936849715297   -1.22457208289842   -0.24993202311873
