    19
        -40.92246919
S           0.84432120173308    0.45311213433776    0.47556309830197
O           0.04572923096612    0.76065020279719    1.63923567399140
O           0.65159760109937   -1.01752564319781    0.11527745793914
O           0.60670646108631    1.28765789834313   -0.66321203152676
O           2.34145850216639    0.51606273091038    0.84877499445778
H           2.40566821353191   -0.03202096055862    1.67065995255453
O          -2.24460679750474    0.88902246843833    0.21583928983473
H          -1.55257623424915    0.91409628031415    0.89879462208031
H          -2.09568035246346    1.65947639127099   -0.33800543036927
O           1.69071845460992   -0.96763840102906    2.88262598658819
H           0.91089215217341   -0.38992887029723    2.84787051761778
H           1.42226007469562   -1.81121231065520    2.50780336498122
O          -0.42007679403316    0.40707876810386   -2.98671143505007
H           0.29368168932357    0.19554003445843   -3.59059793621608
H          -0.01573960503614    0.87965476342533   -2.23443558899448
O          -1.44323344329345   -1.22368247246552   -1.16505247571733
H          -1.97593384321369   -0.55797277988672   -0.66566213469201
H          -1.19256675998058   -0.76838383507230   -2.00387714313286
H          -0.27261976154904   -1.19398640921164   -0.45489078255383
