    19
        -40.91836642
S           1.26737765566590   -1.47567533643071    0.32895721441474
O           1.24883336628489   -0.93481238180974    1.67559412496279
O          -0.03357922205705   -2.06919076017970   -0.01865098652470
O           1.71942251157210   -0.52967558906314   -0.66509645527601
O           2.29668517462023   -2.67118062572342    0.32724763626183
H           2.01163689376968   -3.18824328888838    1.07454427967862
O           0.64523872556063    1.80295585013069   -0.77900603506554
H           1.28970110038502    2.40029563759704   -1.16232143681423
H           1.08922078279892    0.90936993905637   -0.76239131734989
O          -1.89485309735039   -0.48276229002384    0.25681691516822
H          -1.94289368343190    0.02536334177936   -0.61878783692614
H          -1.15364378841626   -1.24662503251770    0.11997626121989
O          -1.73078168879404    1.08223995133158   -1.78489251209589
H          -0.82897316008299    1.40226498042350   -1.56000788250742
H          -2.31060856100351    1.84613267610433   -1.78125031888892
O          -0.44858427311582    1.02812519633633    1.63286501617878
H          -1.41475385643362    0.17861754791156    0.92717694334543
H           0.23301880550729    0.34077268751385    1.84370890049017
H          -0.04246368392268    1.58202750512975    0.94551750937990
