    19
        -40.92246926
S          -0.60941633967448   -0.02107050976651   -0.87983891853004
O           0.53885154814872    0.93220452063514   -0.55960661406707
O          -0.06412083332605   -1.30672481695422   -1.24879440519395
O          -1.55817822448400   -0.04733204962498    0.19200431251681
O          -1.25858264437112    0.63593262305343   -2.11757523374246
H          -0.56462944677816    0.55943795655800   -2.81932540322812
O           0.45320541905877   -1.98602470158789    1.31224098220438
H           0.33359540601943   -1.95502929756918    0.34752589861743
H          -0.42924594555661   -2.05598410680781    1.68494705028315
O          -1.15771937679180    1.11033609806094    2.58529732820852
H          -1.47235958820736    0.66782708535691    1.77417645945608
H          -1.54898171160785    1.98548830699340    2.58730723602234
O           0.95546009213680    0.03896712157492   -3.34414627964613
H           0.85930466248266   -0.75313186186666   -2.79068119698269
H           1.63061592745250    0.58223850713818   -2.92790564900588
O           1.27978226582830    0.49135743162485    1.74823710430039
H           1.17768972734664   -0.49150055626927    1.73987074092144
H           0.93258011304839    0.79162713326720    0.45815208104282
H           0.50214894926722    0.82138111619191    2.25811448682732
