    19
        -40.92159003
S          -1.27820909491690   -0.49222546367091   -0.55069001148245
O          -1.09884556787279    0.64393119382817    0.34062329743534
O          -1.62593584013374   -0.15697287007694   -1.90469184424769
O          -0.12089491325624   -1.39389024143484   -0.47732783550389
O          -2.50062290261905   -1.29867118815248    0.05497523662200
H          -2.83175391329728   -1.80604637198284   -0.67983358527724
O          -0.19670385552892    0.06890955532143    2.73025984815773
H          -0.73279806318647    0.27008632561934    1.92720547717162
H          -0.17979823399416    0.87014742997838    3.25760242031705
O           1.33549590094934    1.61883600355155   -0.15379738702752
H           0.37784522053511    1.60824561125340    0.04176749319574
H           1.37750531266789    1.35117754402318   -1.10249860900330
O           0.91200854186853    0.41943094521327   -2.46893711961029
H          -0.05675894042496    0.29869464262043   -2.42664473047996
H           1.27714716907363   -0.46790314567286   -2.50059633949446
O           1.63239415073929   -0.54073681437759    1.05043669096416
H           1.68690343705241    0.41687446476430    0.57327995117798
H           1.06903669670438   -0.37746835354516    1.87946998460035
H           0.95398489569677   -1.03241928725606    0.40939707243661
