    19
        -40.91892669
S          -0.74110427793090   -0.85997551915203   -0.87700965592811
O          -1.01579906974674   -0.85474612430867    0.57230231900488
O          -1.67323617266808   -0.01496971447456   -1.59189484173754
O           0.64898989279703   -0.58137564485088   -1.13994157398498
O          -1.00627973346874   -2.34591560240726   -1.34838329131100
H          -1.95470027962932   -2.41004995511693   -1.41289178043254
O           2.21284222914598    0.70426411659844    0.72135683888506
H           2.26028027465226   -0.21047453691322    1.08086877956487
H           2.02883227194718    0.56227974614441   -0.22080089801846
O           1.57614038722168   -1.87050275043686    1.04479748345602
H           1.33115297775411   -1.69341574739444    0.12110736665006
H           0.73739835783000   -1.96280371262932    1.50607632052795
O          -1.04682658933362    2.36684407202224   -0.76410546897781
H          -1.28049095092254    1.50858982179499   -1.20193283833144
H          -1.84603594768349    2.89813079524307   -0.76723195539761
O          -0.12499497401962    1.32150559448261    1.36091583510872
H           0.91309716812655    1.16192680269033    1.17784489580485
H          -0.46696575533085    1.89774194977897    0.58737384045631
H          -0.55229981750256    0.38294640849622    1.15154859474796
