    19
        -40.92174072
S           0.84470762853905   -0.05918854547219   -0.29442657973476
O           0.52012932504891   -0.55382497440299    1.10297999430134
O           0.01003487548622   -0.70487309348478   -1.26476353721774
O           0.80447647676368    1.38744382745194   -0.33324402778922
O           2.30375158893123   -0.51760973148756   -0.50761224650103
H           2.86620820010161    0.13596651186479   -0.01699358175344
O          -1.89932094760750    1.39970324254385   -0.46149535994233
H          -2.03161763941364    0.93107413939755   -1.28980601457022
H          -0.95534099832528    1.62733295613171   -0.43396193367468
O           3.25806158779591    1.60842649703982    0.63657578776992
H           3.82608065558638    2.17536460874443    0.10872144456270
H           2.33865867546602    1.87186025598722    0.44631475334768
O          -2.04470294984715   -2.29933549982680   -0.57357511891295
H          -1.32047630513055   -1.78880434643408   -0.98307994179729
H          -1.73241100380768   -3.20263686885735   -0.49911154057616
O          -1.93339855994877   -0.50697823943578    1.38693532500972
H          -2.18171057919294   -1.26203515459392    0.80478890450738
H          -0.54630308555423   -0.54125142676503    1.31885612158595
H          -2.12682694488345    0.29936585158457    0.85289755127963
