    19
        -40.92022147
S           0.32674657220911   -0.83455933021664   -0.21634619861171
O           0.35745638740171   -0.10717956592455    1.03125937036295
O          -0.44109666520759   -0.17814987134404   -1.24295509318729
O           1.75089263005341   -1.07430790175029   -0.72892628462919
O          -0.18363496935863   -2.25190712253393    0.04225855303222
H          -0.85311950609761   -2.20434081853753    0.81885735498535
O           1.52647366656587    2.17690700421007    0.24357705452500
H           2.26889739061260    2.35312488735940    0.82541540686468
H           1.04432504776509    1.42215996639270    0.63245547114310
O          -2.67916938600863    0.15283409197292    0.21744265810151
H          -1.98527470818807    0.05705779472606   -0.45960277736448
H          -2.66880497898001    1.07522140858243    0.48182950546270
O          -1.77150779977750   -1.68920393921373    1.92857659897189
H          -2.33189383066486   -1.08335568712234    1.39268052969700
H          -1.14252871544537   -1.11939616666992    2.38566285889764
O           1.92100581657854    1.02039362898489   -2.13578286529983
H           1.02016628168495    0.95096470422013   -2.47302345606166
H           1.86809295815592    1.63895344167918   -1.37263167919746
H           1.97297379872397   -0.30521651482943   -1.37074699766290
