    19
        -40.92008985
S          -0.46386508593265    0.58211460472129    0.31536298442457
O          -0.06619079879161    0.61282039953175   -1.06461904074885
O           0.04054008685971   -0.56295846821746    1.04319299696810
O          -0.02479971438157    1.86810879689000    1.02109506288599
O          -1.99050030143781    0.62442795982798    0.42711734448185
H          -2.35624837784002    0.14436861105211   -0.40732690508640
O          -2.43928522634058   -0.69800394178284   -1.66994163696406
H          -2.12678203724332   -1.55384919006438   -1.30070219482086
H          -1.67327358544029   -0.31777990290965   -2.11873622468881
O           2.70205252806595   -0.08905129741976    0.99791302315822
H           3.02422945745208   -0.10537227722610    1.90152501458664
H           1.78266307249162   -0.41091514567733    1.02632068302621
O          -1.24839094891610   -2.58676020637840   -0.20378900511945
H          -0.67440648977976   -1.96406919557002    0.27828334924062
H          -1.70664940357054   -3.10476535410737    0.46117523854040
O           2.10213894498417    2.16949518086293   -0.29484314511478
H           1.70120995263312    1.81079046310858   -1.09691238000717
H           0.84668520730922    2.16818900494872    0.56135014382319
H           2.57087272988799    1.41320997840497    0.12353472140529
