    19
        -40.91904989
S           0.38993920710404   -1.05360287960387    0.31294489424510
O           0.91565449378402   -0.20524258663888   -0.86091724985185
O           0.72143796948167   -0.35951617313229    1.53203183786583
O          -0.98662038097066   -1.36814412858409    0.11255105745854
O           1.23199907453696   -2.35065791870846    0.22718606967846
H           2.15846272780843   -2.06595699816805    0.42562715738390
O          -1.85053196221952    2.15696735232529   -0.79710349312673
H          -1.84160345242082    1.79112616012425    0.11598477044263
H          -1.30963420431291    2.94776838511334   -0.77807847819787
O           3.27674593789941   -0.85014901603053    0.82300363842761
H           3.39754883011216   -0.26847430668945    0.06747770926536
H           2.60156162026581   -0.43564886365392    1.38378511106178
O          -1.65754891316488    0.96709273741216    1.60420777164183
H          -0.75774942600002    0.63486534999463    1.75248167969310
H          -2.19851510295246    0.17889555145751    1.50329950939982
O          -1.13707576396736    0.07027258304266   -2.24220628892682
H           0.13522482125909   -0.06671790193976   -1.55014492115583
H          -1.61154928048322   -0.63641567463440   -1.78565049638860
H          -1.47774618576122    0.91353832831804   -1.84648028890787
