    19
        -40.92079106
S           0.53822686480540    0.88506359705201   -1.06570162703757
O          -0.58695832251933    1.15710801412831   -0.18198766758367
O           1.55274743295168    0.07248515208509   -0.39183182928813
O           0.16584292215554    0.35022872349808   -2.35002426491825
O           1.21033822491407    2.29491288066425   -1.32153244514880
H           1.85895891397278    2.11052686919864   -1.99364205223883
O          -1.42986596324117   -1.24000228195493    0.62432183960996
H          -1.41869089952886   -0.31301229460521    0.31069549855661
H          -1.22697908926940   -1.76507517330045   -0.18540205785602
O          -0.62423237442976   -2.09511898168362   -1.73466313589104
H          -1.17406441896663   -2.41642913511990   -2.45182377729538
H          -0.26508904136921   -1.23097604413824   -2.03180672070679
O           0.02221619676666    1.50833577131261    2.34486460119412
H          -0.78711298072745    1.69548731186355    2.82471398547357
H          -0.19588502390967    1.58340690028721    1.38582680136374
O           0.76000793057720   -0.87053860600459    1.75530639094946
H           0.55873588564151    0.01129662331845    2.21584615652036
H          -0.18664919775419   -1.18790869406918    1.37948388254471
H           1.22845294984081   -0.54979061246666    0.86735641173803
