    19
        -40.92071444
S           1.47407332311019   -0.08750486654828   -0.12366369698683
O           0.64708102806322   -1.27175865588390   -0.15001672457177
O           2.04561701287933    0.26090651261980   -1.40414278967803
O           0.73709885730859    1.04554250453781    0.47009111113845
O           2.68245182383673   -0.37042975233442    0.85430272885959
H           3.37416086780432    0.20124685115471    0.53348300520231
O          -1.44900366928660    0.90613550502930   -0.76940524482278
H          -0.59160377301012    1.15608026236343   -0.26359156071270
H          -1.79580703317413    0.04926562097019   -0.17642493446495
O          -1.84566672083948   -1.07657624287632    0.65842491219196
H          -1.69854711674880   -0.69255820108091    1.54836978169283
H          -0.96125302395397   -1.43315203456721    0.41156846614107
O          -0.74883577881712    0.37931571885643    2.60225764784677
H          -0.08405967542989    0.64067594412293    1.93449724944995
H          -0.96058381775768    1.16888776328127    3.10236638647680
O          -0.19471978555092   -0.22207660917811   -2.66851416100621
H          -1.08511046058781    0.50687716760067   -1.64670458804280
H           0.71711312584558    0.01181433663398   -2.37344113135503
H          -0.26240518369019   -1.17269181470439   -2.53945644736603
