    19
        -40.92136405
S          -0.80538796124567    0.89481453207585    0.68762037508391
O          -0.28541587629699   -0.32306123135082    1.33402235496553
O          -0.26918454746421    2.09760109985344    1.27495202880336
O          -0.65880144943853    0.81755743730859   -0.74844934540382
O          -2.36494288667003    0.88517181780925    0.98603203698879
H          -2.45030958224356    1.37332723256394    1.80006224244269
O          -1.44575831441461   -2.19833117537649   -0.19647798959079
H          -1.09755691439110   -1.60528023967895    0.49590791161395
H          -2.32421672294039   -1.87557336609011   -0.40453183574805
O           1.95076766725921    1.79232388248036   -0.11111375257990
H           1.21907895994636    2.04383643091442    0.49716951172796
H           1.64240944895113    2.03217238227748   -0.98946812326974
O           0.49040887284715   -1.29489540971060   -1.78907784345706
H          -0.14787142241080   -1.93641877260703   -1.40591520812257
H           0.01660799500903   -0.43766798773970   -1.68918416432996
O           1.89901598675840   -0.74288445270770    0.17304620087872
H           1.09160731252468   -0.68924948225754    0.80505091613385
H           1.41841616890700   -1.08026052672440   -0.75093539680676
H           2.12113328532241    0.24681783896428    0.03129008067578
