    19
        -40.91335394
S           0.97614814477674    1.50938861274958   -0.61451918404785
O           1.71211897243055    1.21508831904574    0.70587948053825
O           1.27797269573010    0.49138142616725   -1.57511171940850
O          -0.39882951187588    1.79174710860180   -0.37813327407658
O           1.69123647043116    2.82902000237330   -1.06091365729010
H           2.53775378390290    2.56401444846355   -1.41374637513807
O           0.38489589087636   -1.98464732458896   -0.82321935455202
H           0.75893641096557   -1.19623752637857   -1.24863091133959
H           0.59242120279421   -1.90333650114578    0.11462712664234
O          -2.25138129096242   -1.46473171886489   -0.87086593534176
H          -2.38088978736075   -0.95499702972375   -1.67221218636751
H          -1.33190364471232   -1.81060425560357   -0.91340798627834
O          -1.82269616501115    0.11178604781123    1.23326049364362
H          -2.15935491601820   -0.51598064218973    0.55057473018476
H          -1.55532676814679    0.89912058338078    0.73322457246764
O           0.51567850915354   -0.73928734595218    1.75449025710715
H          -0.46062005906765   -0.45606027504351    1.60953928155889
H           1.27228144179703    0.40827378083628    1.16481903443655
H           0.64155861032532   -0.79393770996297    2.70434560725226
