    19
        -40.91790591
S           0.33492079125592   -0.93145716378588    0.27281929780266
O          -0.85387484082809   -0.49408916190406   -0.41337040180355
O           1.56835949338235   -0.28360370612194   -0.32834709159252
O           0.31278181593468   -0.73783532983374    1.69410482513655
O           0.56795277409442   -2.44189798585882   -0.04341689687886
H          -0.20101939775436   -2.89765949836899    0.35843892842291
O           0.68655881865034    1.95219064946084    1.41486691574296
H           1.63624009292373    2.02136107321913    1.29626121597621
H           0.51780024879864    1.04738377644825    1.72027117424003
O          -1.71548579841486   -2.59973771711555    1.24402011030550
H          -2.10835796153203   -1.93978097861097    0.66194646460847
H          -1.35321684702171   -2.11273024621511    1.99303082866852
O          -0.82670247408088    2.20841644189243   -0.84101228921530
H          -0.34722750269259    2.40555448258743   -0.01517879219774
H          -1.21895867859974    1.33568551904439   -0.68709760974110
O           0.93741243864043    1.05419395793574   -2.33637920436796
H           0.40885172105448    0.49488784826385   -2.91129587545693
H           0.28585502433417    1.66117308222475   -1.86420371721595
H           1.36811030189721    0.25794494671967   -1.21545789237670
