    19
        -40.91624663
S           0.41291794633523   -0.22484802936093    0.78822864883375
O          -0.87617340714518   -0.43346592198350    1.36612274659403
O           0.89296953115769   -1.27451513645128   -0.07623125188653
O           0.42919535878510    1.10039309207762    0.00350432249065
O           1.42961198337075    0.02449023171512    1.92051787856079
H           2.33067876819889   -0.14313781279378    1.53790081465898
O          -2.39172589863844    1.75589913966354    0.63553481767645
H          -1.96222416696538    1.07106454842358    1.17050200017247
H          -1.69434458833758    2.36164805613597    0.37397607044844
O          -2.51801216110693   -0.42195786136675   -0.99560795014874
H          -2.78038028818524    0.43408276051287   -0.60636854196740
H          -2.20859277322509   -0.93901024777491   -0.24329821286336
O           3.43148644790768   -0.83240760043095    0.51491009952791
H           3.91614805469116   -1.58662417564297    0.85959143730903
H           2.66650714538687   -1.18359027727291    0.02185972484355
O          -0.27216647144440    0.16222404145593   -2.20607241710626
H          -1.20646825360908   -0.06060203430830   -1.94016184563413
H           0.18116503871922    0.85456946100498   -0.97604734202305
H           0.21940772410074   -0.66421226360370   -2.14886099949010
