    19
        -40.91373487
S           0.38046475554950    1.55188958817591    0.47909318053028
O          -0.22412733313075    0.70863194191072    1.47547272570540
O           1.89755136851226    1.48917197430592    0.56684796410304
O          -0.06438166170225    1.35873101284328   -0.86178560415397
O           0.08146197972480    3.03997801322478    0.88183624932419
H           0.28677901104484    3.14833191143424    1.80913335262324
O           0.79633756430685   -1.67608849439477    0.44830564518152
H           0.03188483222722   -2.04990388564827   -0.04453711169933
H           0.43386504102336   -0.98776841623691    1.02188621552152
O          -2.37719525028983    0.06739156030198   -0.13130381290299
H          -1.89808829537962    0.18317310449276    0.70033300515938
H          -1.87775416941301    0.59770877491923   -0.76560350741778
O          -1.47054674900895   -2.37597089442024   -0.80850865081363
H          -1.92858746866172   -1.52242042363730   -0.64364324392772
H          -2.03777795321903   -3.06338720737848   -0.45604439681862
O           2.28385372897084   -0.26895714606694   -1.12848091546875
H           1.64897594609603    0.00407797001329   -1.80012112010198
H           2.21283578331799    0.77350611908692   -0.15684539161307
H           1.82444886002077   -0.97809552292653   -0.58603457321669
