    19
        -40.91905002
S          -0.56691353009820    0.39528297392631   -0.94079686578589
O          -1.61040659933195    0.63642177780456    0.02386061780881
O           0.74023728485232    0.97143476835047   -0.36303916714603
O          -0.37055000344779   -0.95895866291601   -1.34248720366829
O          -0.82567682935195    1.27084434918912   -2.19191041406720
H          -1.00104855949328    2.17695531616149   -1.83548719911055
O          -1.16506758204662    3.24057848441791   -0.52094335905690
H          -1.58135683339872    2.52510226729185   -0.01420656834849
H          -0.30260145986036    3.38921090874511   -0.12348708073191
O          -1.25031485393026   -1.77310085046052    1.24439251177275
H          -1.51840106832384   -0.87632359756742    0.98782720681155
H          -1.30366111561158   -2.28828120348140    0.43450714419331
O           1.36603664121392   -1.85021278147428    1.85137742049891
H           1.49947726247156   -1.33253114822935    2.64665278840773
H           0.39440452566211   -1.88721422651388    1.70258468335807
O           2.25534566576041   -1.00065629320365   -0.48113554947532
H           1.67543594867320   -1.48539749582855   -1.08254282261643
H           1.48333160084249    0.23100308270296   -0.41203272819145
H           2.08172950541999   -1.38415768891664    0.41686657534728
