    19
        -40.92267741
S           0.61731253995956   -0.62792771039204   -0.59943179639372
O          -0.22528850605337   -1.06442286571440    0.54202755002270
O          -0.22669974956595   -0.32600107210302   -1.74606508832855
O           1.46187687272820    0.47919701729717   -0.21272411774010
O           1.53095379079270   -1.83547942986159   -0.94872054441477
H           0.88821560518613   -2.52360882739455   -1.23122161258647
O           1.23364560998688    1.71233892140882    2.07517473167419
H           1.48694502184855    1.32049774480003    1.20310347619054
H           1.73450696893974    1.23665938775544    2.74063629113469
O          -1.13897985862956    0.99171952770678    1.52241346773163
H          -0.82071615861296    0.01396868993260    1.16785747106207
H          -0.27285966207033    1.37146241762312    1.91768551693945
O          -0.77575142009010   -2.95221087280332   -1.50742097452051
H          -0.89939054053825   -2.07966386942295   -1.91420375382776
H          -1.12466723103977   -2.87147120410460   -0.61386898570610
O          -1.06719366135043    1.97704923628705   -0.81837089648207
H          -0.85225229110615    1.14970775278831   -1.31170188251077
H          -1.26373819149166    1.49696973117788    0.63299405721995
H          -0.28591914888399    2.53121542508012   -0.89816290945020
