    19
        -40.91799432
S           0.34057261336543   -0.44800484976448    0.84209630495704
O          -0.17693049427886   -0.42094734365477    2.17175418936358
O          -0.39700983498143   -1.23670127095175   -0.11056485567869
O           0.40320811870397    1.01136415817890    0.27570335844607
O           1.81025191546493   -0.85845931802208    0.84902009428387
H           2.00984562980757   -1.24090025396595   -0.08708312435744
O           1.88808988042866    0.97671224336686   -2.07171737368249
H           1.38370661702334    1.17487646563509   -1.26659371623811
H           2.67329835470538    1.52704630081076   -2.05283242058255
O           1.90212951542413   -1.65030872344385   -1.53843864475524
H           1.97545919063974   -0.77564756891760   -1.97698048725205
H           0.95656990840226   -1.85049912224415   -1.49059531996529
O          -2.69719544936570    0.51001310639886    2.15735730333745
H          -1.78776768254907    0.21045943408905    2.34655198185625
H          -3.28170775820143   -0.17395159457537    2.48985689356074
O          -2.02915465978143    0.99711656094356   -0.37304917920557
H          -0.56292454593069    1.20178404701219   -0.01737720875106
H          -1.94752155137701    0.07734062162681   -0.65693490916535
H          -2.46291975750502    0.96870712744267    0.50982710382929
