    19
        -40.90738847
S          -0.52374333361172   -0.17081079223200   -0.08440186544931
O          -0.39873860957335   -1.46265202975650   -0.69436652369243
O           0.18712783704635   -0.03527362984489    1.15628724848465
O          -0.10441803586390    0.91719962981906   -1.07896190846736
O          -2.02470199404098    0.18527049783157    0.13533204796400
H          -2.35363006385283   -0.51404504867745    0.74383673412865
O          -1.86905330948558   -1.94992399691344    1.63020226270644
H          -1.44086458403519   -2.42493721094523    0.90777690792495
H          -1.16164004756992   -1.62694946467535    2.19810687997473
O          -1.26962889822605    3.04182506706536    0.47527490555830
H          -0.76864169652357    2.51399411911944   -0.15237688327594
H          -2.07931909076219    2.55422802525709    0.63876218141737
O           2.73446335009819   -0.13874378107937    0.26172504253167
H           3.20063700974890    0.65183395450934    0.54308619367957
H           1.88614904972390   -0.14178660550008    0.74133351323375
O           1.73237051595628   -0.36110189148286   -2.18955239788882
H           2.32239220399032   -0.33474449052168   -1.39938291896303
H           1.28144930156542   -1.21359717990380   -2.15467356974454
H           0.64979040538665    0.51021483780276   -1.67800784005327
