    19
        -40.92182562
S          -0.46771042511239    0.76207234612399   -0.76558794712136
O           0.26139804502087   -0.49791447888682   -1.21418396674618
O          -1.00821724321915    1.41678399329914   -1.90977648959705
O          -1.36351831759076    0.46411391628209    0.31994086183853
O           0.67797239830056    1.64152971930456   -0.15108586126780
H           1.22131788865213    1.88820199598826   -0.93816408380119
O           0.44546891143684    0.22801635217929    2.31647757358482
H          -0.32421715933125    0.44400517242906    1.76146032076041
H           1.06470823342437    0.95027940957750    2.19068927468950
O          -1.95086231607734   -2.08550588863818    1.11413028598440
H          -1.96280193852385   -1.17333291297308    0.77752754764376
H          -2.32105724274525   -2.05298023260780    1.99868448253819
O           1.54321962541001    1.82318158826180   -2.59610976092302
H           1.84856981780827    0.95855437655081   -2.88392080522424
H           0.58581951721774    1.84302389370862   -2.76357560074515
O           0.68687016585773   -1.92494593716584    0.76580180607596
H          -0.22141179310169   -2.28006935130557    0.89826446275661
H           0.49318074152876   -1.16049830068966   -0.39189785193178
H           0.79127108113497   -1.24451566163001    1.47132574154644
