    19
        -40.92079005
S          -0.67117425330238    1.31438272698441    0.16900373708412
O          -0.30581583517174    0.66473757029369   -1.08230036812729
O          -1.01922743798240    0.32651940229989    1.19196498561868
O           0.28901177323465    2.28049632110476    0.63709601640998
O          -2.00697861402535    2.10098010063392   -0.15082439320597
H          -2.13614688634946    2.63902927975513    0.62398327013665
O           1.64837511405830   -1.03232421554062   -0.44363738578476
H           1.11191120127634   -0.36381694385541   -0.91601224627142
H           0.53939118670398   -1.74380532385681    0.17750548198065
O          -0.43392491928392   -1.98783900054509    0.53830096883428
H          -1.00334431101515   -2.03289775053924   -0.30076906248621
H          -0.72890170941625   -1.06420206303840    0.95190291057401
O          -1.65487373648382   -1.50953373286558   -1.65977600651655
H          -1.29053074948893   -0.59829750924660   -1.56132523954970
H          -1.34497355347357   -1.83816057055010   -2.50615214651754
O           2.29402720481089    0.73669274032130    1.40132420549440
H           3.08578384614841    1.27694012122888    1.43444379169335
H           1.55174884481397    1.35092065506462    1.21316666104596
H           2.07564283491455   -0.51982181765449    0.28210482957445
