    19
        -40.92071439
S           0.05598646309012    1.16589456882737    0.91317110422338
O          -1.18217002703814    0.52741536113770    0.42370726503795
O           0.27853236572845    0.89219363272093    2.31420643517695
O           1.17203851813655    0.82611309547950    0.06117424275888
O          -0.18651797149298    2.72190646006434    0.78415652947819
H          -0.59196180683137    2.95996415625169    1.61310107392635
O          -0.39453732308034   -1.83132433470014    0.03947592207139
H           0.33070447566856   -1.85525228783840    0.77040649056391
H          -0.88685841146873   -0.95307738689684    0.24064431352061
O           1.38713017164426   -1.42421008643437    1.80438525555183
H           0.99913766797545   -0.60268285119758    2.18843070246821
H           2.18556840424724   -1.13522340811197    1.35278952598200
O          -1.45165439613230    0.57548184158071   -2.24504851676066
H          -2.36748270080551    0.41085790135935   -2.47424918762236
H          -1.42506233784241    0.70829399111163   -1.27663038013083
O           0.77031111857039   -0.85805418070701   -1.91579344862150
H           0.02467345582208   -0.40653323671498   -2.36473151491666
H           1.15287374696602   -0.15595177225480   -1.34060528595047
H           0.12928857685307   -1.56581146375053   -0.88859054676741
