    19
        -40.92343663
S           1.48017214757037   -0.17173975113050    0.79006002204613
O           1.88659981130821    0.73352140948195   -0.26360030894890
O           0.80547793655975    0.53027018090986    1.88289051111918
O           0.68599570538368   -1.28465780684465    0.29427756390772
O           2.78500606572681   -0.80148831388266    1.40877281683169
H           3.25508260762396   -0.03764244616045    1.72848601470928
O          -0.36909501762738    1.67286417895772   -1.19774001203352
H           0.56737475630317    1.52220663322002   -0.92513238957920
H          -0.59150275117457    0.87144847923150   -1.71628698847117
O          -0.52056964661184   -0.87507711684668   -2.03490116216381
H          -0.00826000263793   -1.13232641895164   -2.80260939556528
H           0.02552537109929   -1.10448385068482   -1.25073648604477
O          -1.97441605633659   -1.20789420197194    0.48941121089910
H          -1.03344517076553   -1.46061410728000    0.59372354407693
H          -2.15838033952321   -1.31036997057634   -0.45087808721162
O          -1.41797361163311    1.21922754937697    1.01667893494048
H          -0.52153195804458    1.01321485558884    1.51420811099634
H          -1.07308523371013    1.53701359962568    0.05584256005053
H          -1.82297461353597    0.28652708792844    0.86753354045671
