    19
        -40.91873787
S          -0.95020845036054    0.73097558281026   -1.22212821426996
O          -1.21136396740094    1.07270686876280    0.16479793115054
O           0.40900040465144    1.08362711028450   -1.60914462323786
O          -1.27042048060097   -0.66401232881506   -1.49942811017133
O          -1.90488487035490    1.59304074744673   -2.13212394645682
H          -1.44837881777192    2.42646520115425   -2.19145980574697
O           1.98032713752509   -0.56890401958049   -0.43698254028653
H           1.43679728492949    0.11063236932910   -0.93173659107248
H           2.64906966739058   -0.87721558965964   -1.05140042215383
O          -0.92775175315187   -0.74599005726060    2.11573197645356
H          -0.13798896650363   -0.21525139033468    2.36972594219932
H          -1.43735316633449   -0.11416062720943    1.57228800484226
O           1.03055054026586    1.00152223431305    1.76916897802573
H           0.33713038993074    1.33063455276082    1.17274689454632
H           1.71790244456102    0.63697534256991    1.20166352139264
O          -0.04975657110707   -2.02650583574162    0.17399668175384
H          -0.43623188232068   -1.59227627128093    1.08959190706539
H          -0.64137066016267   -1.58343935871354   -0.57048392843542
H           0.85493173681327   -1.59882453083340    0.01517634439879
