    19
        -40.92246897
S           0.90936240666843    0.28931393962571   -0.48623237253361
O           0.83774950722179    1.59991602419216    0.11647894597969
O           0.72240675752208   -0.76729176418696    0.59958713557957
O           0.00013924834957    0.06680551052659   -1.56961112376633
O           2.35173729434635    0.02442950747638   -0.97034401174981
H           2.91170525185898    0.25526864138449   -0.18719237940085
O          -1.85570680555275    1.53200695350799    0.29059242237502
H          -0.91292159383859    1.77051862230223    0.30158169410551
H          -2.11817019058786    1.53821831528295   -0.63331018339392
O          -2.00899215626153   -1.71825334217203   -1.50304220151175
H          -1.31969523213488   -1.05638474677578   -1.70213359728979
H          -1.71756739207506   -2.54192022530348   -1.89755716948787
O           3.07512958808850    0.82386282333177    1.39581417628362
H           2.73943966942242    0.15431171066616    1.99839764823014
H           2.34348487917521    1.44173842597326    1.23514500467294
O          -1.69173998077497   -1.00539717649144    1.02989334822199
H          -0.33579111235020   -0.92671283507390    0.85502626328341
H          -1.94226399893680   -0.05393137824521    0.93855885504091
H          -1.98830613013691   -1.42649897601766    0.18834754536650
