    19
        -40.92079116
S           0.49752521675498   -1.34805905123451    0.37794142481725
O           1.27464848861178   -0.24655625808537   -0.17308886158869
O          -0.59468798945604   -0.85345594378641    1.21851287048460
O           0.05124374364181   -2.30521320316408   -0.60122942672578
O           1.48901446104197   -2.10264701125987    1.35390665018092
H           1.00328884507760   -2.88360037183442    1.60045144341616
O          -0.50148361581682    1.29202853717273   -1.43323923963827
H          -1.13104478151044    0.59712668105679   -1.73813447028651
H           0.31199083879155    0.79226389671624   -1.21843390260761
O          -1.80605952662914   -0.94957629168784   -1.90389939050762
H          -1.18920411023644   -1.52684255764899   -1.40373909383704
H          -1.93727313679170   -1.37325548395688   -2.75427615584682
O           1.56750623330166    1.82743050436709    1.40576073997461
H           2.10558282479260    2.47761464078168    0.94968826191822
H           1.64103884635725    0.98988389397841    0.88995214961732
O          -0.94813322801039    1.58652633553354    1.00145430404366
H          -0.88937539545622    1.59952683772424   -0.06290936933261
H          -0.92102394196739    0.54923003899291    1.18838629522729
H          -0.02355376248947    1.87757481634522    1.30289578069774
