    19
        -40.91907735
S           0.48868116495441   -1.52909513763366    0.45169243597307
O           0.15226903462152   -2.50702108387425   -0.55643950708950
O           1.49218070014397   -0.57315715311418    0.04363315380079
O          -0.71436832994762   -0.84008878997488    0.96509371569357
O           1.07622615754322   -2.31851545363255    1.69163048495663
H           0.59562238408422   -3.14196400199102    1.71389416600385
O          -1.55615713901675    0.52345956750898   -0.92913100140501
H          -1.18481849211138    1.46608529601802   -0.69424718065244
H          -1.32334873879851   -0.07333257645381   -0.09026819725357
O           0.75159430580198    1.35653001879040    1.68439849221338
H           0.05707296998626    0.75367503241234    1.98020952863597
H           1.31339897423981    0.78198394076918    1.12762484593944
O          -0.50416288488236    2.69172247419399   -0.16897187788572
H          -1.06404587667873    3.35167578411917    0.24391869199971
H           0.06417731820974    2.29934633164017    0.55617933707808
O           0.17136919795118   -0.61834212720114   -2.37535279800543
H           1.00163688331287   -0.25184633797531   -2.04456459507725
H           0.11701524856833   -1.49705035048008   -1.93701046376354
H          -0.93434287801311    0.12593456692275   -1.66228922115246
