    19
        -40.92246920
S          -0.94101784562489    0.37725445636223   -0.34151861741243
O          -0.84105110171861   -0.41362110336602   -1.54607209071226
O          -0.67410219419244   -0.51903370364038    0.86484871445147
O          -0.10375225932527    1.53794055883282   -0.30415850351364
O          -2.40995666775720    0.80280407218979   -0.12724733359555
H          -2.91965642039195   -0.03979036659025   -0.22883130507253
O           1.92116104948742    1.87638658541008    1.43176761678931
H           1.21478723005476    1.92654571092397    0.75989170251068
H           1.61106751911729    2.37357876617469    2.19045213849032
O          -2.98677006768466   -1.69671361514171   -0.55262569821349
H          -2.26903372345785   -1.58477601161799   -1.19707642228939
H          -2.61263123616784   -2.17556967139071    0.19226912900392
O           1.85824364438003   -0.40755401093826   -1.50117491195512
H           2.06209268505926    0.51787775183928   -1.65747794083445
H           0.91591113239243   -0.51351126307408   -1.71727087060173
O           1.76517438529675   -0.75182292658383    1.12310138859061
H           2.00121857600753   -0.79353836405328    0.16458470817169
H           2.00904137431886    0.16215256413732    1.40357085657687
H           0.39927391023746   -0.67860944941722    1.04296743965306
