    19
        -40.92136400
S          -0.00591028359239   -0.67957299402291    1.20895375399177
O          -0.40063902909392   -1.34264679997134   -0.04653626679217
O           1.20058146529273   -1.23835952315279    1.76679425406026
O           0.02378499765936    0.75626202102648    1.04461902573460
O          -1.18119752262286   -0.99593804854647    2.22839534059057
H          -0.90866349061964   -1.80319657882722    2.65539024434478
O           0.94760999983985   -0.16779646999018   -1.80572345314612
H           0.38644604392676   -0.80666418810289   -1.22941308503532
H           1.76213900684228   -0.00468182988828   -1.20675260073198
O          -2.53772974003349    0.14111461305385   -0.70956510585410
H          -1.87170041413408   -0.53607714730598   -0.48590439870346
H          -2.99305488492428    0.34557614124649    0.10899981969020
O           2.64528776695343    0.16697896154677    0.06956062016458
H           2.55045642230310    1.04628578101121    0.44634488754417
H           2.27193475842379   -0.44479402000884    0.74405224650567
O          -0.51575011599559    1.76977731878420   -1.31115480633901
H          -0.30867741414857    1.68042165997738   -0.35284696850384
H           0.34583851259192    0.74440832116806   -1.75174111249689
H          -1.41075607866544    1.36890279200144   -1.37347238502750
