    19
        -40.92246910
S          -0.36290858011234    0.20733077076066   -0.98542721189397
O          -0.45576245729456    1.09842846310408    0.25037704130925
O           0.98881910132469    0.24726895457332   -1.49317354790869
O          -0.86893989923970   -1.10191291774802   -0.70359279079177
O          -1.30716678027888    0.91336738164996   -1.98273415081389
H          -0.85690141021367    1.77528058917806   -2.16832407685325
O           1.90811202839419   -1.43443875570792    0.40838790179827
H           1.45756680231054   -2.25369411114187    0.18845622983623
H           1.78834930153983   -0.84971204492018   -0.35949269259660
O           0.44099938891847    2.83839476582103   -1.96542073638611
H           0.40724530980796    3.20540147994562   -1.07754250042133
H           1.04028113356247    2.07524571365138   -1.92565396130968
O          -1.50615982984922   -1.97552531933391    1.75841485912358
H          -1.35461284094140   -1.80982163098118    0.80853599272108
H          -2.44543014591673   -1.85701762887986    1.90939852973591
O           0.39437950776313   -0.17634745032698    2.17978624697219
H          -0.31391370416356   -0.85584645229803    2.27990530866715
H           1.13174559757274   -0.64640303478186    1.71961501023793
H          -0.08570255318332    0.60000121744097    1.15848455857317
