    19
        -40.92136398
S          -0.18691971083460    1.09984403938059    0.82334110026707
O           0.92677301160515    1.81765705764299    1.39204552469065
O          -0.23994781721685    1.22187227345813   -0.64431400244233
O          -0.27106448818634   -0.28543141257220    1.22737633851059
O          -1.51114848752204    1.80522207428352    1.34275932411994
H          -1.25427633389858    2.71243760072552    1.48157288944521
O           2.54166264754452   -0.15979332422957    0.73889669365680
H           2.10038959982597    0.67227440072768    1.02435291118804
H           2.28258306689111   -0.81886825532313    1.38894655460776
O           1.31452784407479   -0.56945528672550   -1.46069036281808
H           1.96535415514976   -0.49434172332424   -0.67368531269227
H           0.71492329543069    0.25234836180838   -1.31724146777292
O          -2.33400562976147   -0.37345003417504   -1.16997896578140
H          -1.66261854942421    0.32796823220708   -1.07249045092740
H          -2.96899160405469   -0.23248377609511   -0.46570037599526
O          -0.41231923474814   -2.13667395117276   -0.62245756304027
H          -0.40046082689636   -1.68162444558485    0.25038822457546
H          -1.22816463106131   -1.77884801574940   -1.03734823979628
H           0.62370368310893   -1.37865381529395   -1.20577280980710
