    19
        -40.91966061
S           1.64848786980576    0.27292988010031    0.37297325722673
O           1.04711050556648    1.36791935461835    1.14950353727046
O           1.43370735709940   -1.00531035942023    1.03359284382647
O           1.20638782640793    0.28610678961575   -0.99936179210409
O           3.19976627891339    0.54017166837206    0.37598974415677
H           3.42265874455648    0.49744211949237    1.30086450643730
O          -0.85540319392259   -1.39915500868153   -1.71894096315216
H           0.05564420772926   -1.08334140347054   -1.60230937323917
H          -1.12487790247981   -1.74130657334866   -0.85880472495208
O          -1.23647307912688    1.21383741416196   -1.75572004789332
H          -0.27068723726414    1.30660352755461   -1.80611181985359
H          -1.37241255898265    0.25513098733818   -1.95308663586668
O          -1.09983915630450   -1.36941884164235    1.11921725704115
H          -1.33764971422973   -1.80616840138403    1.93928333309961
H          -0.09992976790384   -1.31788147889244    1.10737143358962
O          -1.37684233284788    1.16641945658415    0.73466780999387
H          -1.42266007275417    1.26763354674047   -0.33473106586702
H          -1.45696130223196    0.17727898394609    0.92517197342384
H          -0.36002647203128    1.37110831831570    0.97043072685560
