    19
        -40.91855624
S           1.05257481143328   -0.41168377074764    0.28339441942625
O           0.37320681543992   -0.27378688889616   -0.99015164977103
O           1.20748982176058    0.97278956737124    0.91596325560437
O           0.45503668518456   -1.34203012561527    1.18268076504333
O           2.51509703394372   -0.82219631912896    0.01740727061342
H           2.79849879149591   -0.29748575956782   -0.77425643063108
O           2.57994218747123    0.50291051974753   -2.21646199403966
H           2.78904659755440    0.00683653686298   -3.01185728545891
H           1.62402250787147    0.39363147575331   -2.05516116637077
O          -2.21578636497842   -1.85310251853689    1.22923044947136
H          -2.32635986124931   -2.77144955887285    0.97736073122464
H          -1.26160298752237   -1.72015838454783    1.36779379330423
O          -2.21593177674234    0.33904648146175   -0.35402619463679
H          -1.39332641294123    0.07851178456469   -0.79877450795695
H          -2.46086143707484   -0.42931164261916    0.19855136389028
O          -1.06707026444253    1.97661903934926    1.28421350448481
H           0.29085016954895    1.40197068821637    1.13555726039893
H          -1.10958046890945    2.86015262099228    0.91097836204394
H          -1.63524584764142    1.38873627411926    0.69755804341368
