    19
        -40.92087799
S           0.84209086539706    0.84712362483634   -0.10956181293197
O           0.33029783526201    0.74421375031361   -1.45996240524122
O           0.08548471591757    1.66895600715932    0.77876109927010
O           0.99767477636850   -0.56597505028792    0.45055913872939
O           2.30105598454793    1.35296729847211   -0.15755920220232
H           2.73655206378313    0.75978507335185   -0.81699283127378
O           2.65529621012580   -0.51651745205068   -1.93726537288123
H           2.53616230665436   -1.32095098743997   -1.42409746247999
H           1.76573691742650   -0.20228748814856   -2.16845154968821
O          -1.67599601804754    0.68855081167962    2.55787363342443
H          -1.13970295330711    1.21573066744817    1.93580627807967
H          -1.27700991580444    0.80338577755527    3.42236582338702
O          -2.07384721196498   -0.42853270954140   -1.26527390938818
H          -2.36766950075572   -0.74615338406621   -2.12088229025970
H          -1.26986269373968    0.10228070443615   -1.42141365037317
O          -1.23064479215949   -1.42784329387911    1.04893906862066
H          -1.52875221192644   -0.75719826433100    1.71428564918004
H          -1.71942533442157   -1.20907113556725    0.22480484734585
H           0.03255893666007   -1.00846393995046    0.74806492867931
