    19
        -40.92037977
S          -0.35500028249764   -1.01639582094406   -0.07006066039733
O           0.95501973699215   -0.90512122953177    0.55021643005396
O          -0.36274846058299   -0.79196019531088   -1.48043775208910
O          -0.91470017496784   -2.42304339671988    0.22772814296468
O          -1.32342982787395   -0.08942459772373    0.64249952918165
H          -1.18548824284889    0.94510226896665    0.35706573699168
O          -1.00469957500193    1.53494913584388   -2.67070030021692
H          -0.24175721464519    1.76771174566739   -3.20403989711882
H          -0.86818803019550    0.60922770552537   -2.39558984523311
O           1.74764066412998    1.60662471873414    0.04502460420839
H           1.58297860607711    0.65221757020194    0.17155021229891
H           2.31684970739412    1.88294619368516    0.76614207757064
O          -0.84486597563349    2.21562877355306   -0.11595675718876
H          -1.03871303785877    2.14558273379704   -1.08289403112367
H           0.13621429375949    2.20026438297536   -0.04636924513788
O           0.32482814364308   -2.56287385779015    2.51050060231993
H          -0.65739978325945   -2.62328743642490    1.16263627349099
H           0.93938489591225   -3.29562799546009    2.59868243453770
H           0.79407456744833   -1.85252071904037    2.03400245488737
