    19
        -40.92159000
S          -0.08675975318342    1.28851774940625    0.71458924597085
O          -0.22475861699754    1.28072010331115    2.14558120624214
O           1.22157009991971    0.78519464099960    0.27594102283059
O          -1.15950185138317    0.62717726033432   -0.01302625357547
O          -0.15118658286078    2.80267848385162    0.25179757810026
H           0.28084907876920    3.27983861991636    0.95363470540370
O           0.67003515312976   -1.22382564178199    2.27106141807557
H           1.60169913587611   -1.07317244019063    2.09483480665542
H           0.28559912565439   -0.33547443176149    2.40533058683160
O          -0.78869942571794    0.38712136138684   -2.59386740747128
H          -1.57596764411669    0.00562445659432   -2.98755794024160
H          -1.03434972292211    0.66093149916624   -1.67878219850091
O           1.01167846731012   -1.00339483073202   -1.42527650433145
H           0.40556046765931   -0.53352876221466   -2.09071508012223
H           1.24028064119054   -0.23188159349396   -0.74350043603083
O          -0.66669235972803   -1.99124970972815    0.12625619945881
H           0.34496747681913   -1.59405938508864   -0.82910012191381
H          -0.20076720055119   -1.97585326443118    0.99590922354939
H          -1.17355648887410   -1.15536411553859    0.12688995906074
