    19
        -40.91836433
S           1.08329016601626    0.11232154940030   -0.44740061949491
O           1.17310071464064   -1.07748911288434    0.52933938982834
O           0.53795209607486   -0.27535423554464   -1.70384139233098
O           0.38963605157948    1.18679258183456    0.22806821946043
O           2.56721301868812    0.49236750640472   -0.61757779066006
H           2.83939541213880    0.84585331089333    0.26685139525853
O           2.51600832134378    1.30823056986230    1.84862734199630
H           2.42972432899048    0.53986405073506    2.41873960978627
H           1.61934109658408    1.54922449393463    1.55983776262478
O          -2.19916435096477    0.29476593142571    0.25931026220804
H          -2.39807568788913    0.24616165133852   -0.69748976550337
H          -1.38525801746818    0.82003141466224    0.32153650178063
O          -2.06123091880692    0.12740671406543   -2.43258408171679
H          -2.05181926187274    0.87832656625211   -3.02870626206675
H          -1.13358064467638   -0.13989141085085   -2.31519598485804
O          -1.14683863214002   -1.99397180309505    0.82969124654070
H          -1.35317641231526   -2.21110793599540    1.74181118612616
H          -1.67746068979839   -1.16854966687623    0.60341464460449
H           0.25094341007792   -1.53498217648770    0.63556832584402
