    19
        -40.92037964
S           0.90884646369901   -0.12892396462316   -0.57054905054649
O          -0.03787339410820   -1.22072765627817   -0.72807669520196
O           1.57174867746674   -0.09840778727500    0.69402420241575
O           1.95846778074262   -0.23096081046777   -1.69671623145032
O           0.20506560633748    1.18538495757208   -0.85772955747819
H          -0.42622903831971    1.49812024889567   -0.03691298525663
O          -1.85170425353358   -0.86120489346168    1.21346197607279
H          -1.17674088867669   -1.12421209683984    0.55812250801761
H          -2.68756284148661   -1.21227533363590    0.89994599678180
O           0.83509242572148    1.43021471020391    2.78333640774772
H           0.68130306719180    0.81726458886485    3.50536842271110
H           1.28886250126268    0.91836347107497    2.08808163009785
O          -1.19593460665471    1.72302649254722    1.10871149801749
H          -1.60362289684802    0.84015490399902    1.25630500221991
H          -0.51036732820144    1.81476878398171    1.81513866899598
O           0.25254126403466   -1.28297779990392   -3.35496854189318
H          -0.16040508282951   -1.41529393499029   -2.48102720135808
H           1.45914921146569   -0.50030882057706   -2.50820519180278
H           0.48936332272949   -2.15200507908556   -3.68831086809100
