    19
        -40.92037970
S           0.99433480593266    0.41164178424194    0.04442683408375
O           0.90481187303680    0.15833404770162    1.44702449042607
O           0.00702681877781    1.35040890879947   -0.46239705888643
O           2.39846498762910    0.95758424229201   -0.28865189578635
O           0.91367890916047   -0.87611829930116   -0.75590438151977
H           0.06772257235258   -1.48446506372666   -0.46641762233029
O          -1.07995987039543   -2.11419048108476    0.02651304656724
H          -1.72537094775958   -1.37217072524591    0.04425149722379
H          -0.84660831710124   -2.27937991705319    0.97278647217685
O          -0.32938593900169   -1.95756829503527    2.56215955068607
H          -0.98228886941483   -1.58666744622287    3.15953261508150
H           0.25170098246157   -1.21732361943910    2.30588529568102
O          -2.36195053723985    0.22495332621782    0.09903244128043
H          -2.98677749727780    0.51151384803687   -0.57017076091525
H          -1.54933629368577    0.74944799232774   -0.03700878972325
O           1.56052176171072    2.12872491195825   -2.45498742464069
H           2.32870579509446    1.34758544961540   -1.19607229960979
H           0.74341130631435    1.96789988541090   -1.94683853679273
H           1.69129846943324    3.07978946064279   -2.48316346298021
