    19
        -40.92246909
S           0.25497537845640   -0.26575026327249    1.00440944984506
O          -1.01486048222474   -0.93417185174169    1.16886073681216
O           1.21636255409092   -0.97141502920366    0.21226912386854
O           0.01176867237020    1.13085133009229    0.43828300140194
O           0.86128319555696    0.03383384763902    2.39277952393468
H           0.11959440875408    0.46194224980838    2.88953796780142
O          -1.22892796670911   -1.49038039708104   -1.46415366985023
H          -1.34021139752721   -1.41747896903154   -0.50070500374193
H          -0.50581314696612   -2.10780058260108   -1.59983402728789
O           2.14780927007006   -0.09699373881794   -2.15337529256433
H           1.93946665698929   -0.53917693418319   -1.30850498443584
H           2.96555122009178    0.38350124944763   -2.01453316414035
O          -1.48099288449486    0.99387411408168    2.98664650360874
H          -1.75056871730637    0.23526871091826    2.44358829997232
H          -1.58384061248035    1.77456751454171    2.43515011069950
O          -0.29144313975683    0.92805633361660   -1.99836703323900
H          -0.14180822096023    1.12360971164577   -0.65093328079371
H           0.62120487310343    0.67697368426114   -2.27723267845662
H          -0.79954966103745    0.08068900987730   -2.00388557337986
