    19
        -40.92037970
S          -0.35916277183888   -0.42912319777658   -0.92435132041753
O          -0.97273486416419    0.84880190369379   -0.60273782314441
O           1.15117450541002   -0.28168602778038   -0.87813643098303
O          -0.80026496653524   -1.51812468962853   -0.11260130349238
O          -0.64674710070392   -0.74584383407969   -2.40674106999519
H          -0.56035046553934    0.11509660217301   -2.88806600131334
O           0.49958689729758   -2.46016829008460    2.04779348983953
H          -0.01380785168814   -2.31331640458706    1.23167782346807
H          -0.12742604504222   -2.39161435352817    2.77080829335023
O          -0.66950545647165    1.77171773817677   -3.06168776988900
H          -0.79172397259175    1.78186197604857   -2.09381808124578
H          -1.48861792129546    2.08694799069107   -3.45173485608800
O          -0.30342914087372    1.31753866055920    1.95122044580516
H          -0.25749306534827    2.26831087325882    2.07080288258799
H          -0.68153036230680    1.16744422477606    1.06316029194516
O           1.82236133986573   -0.23125549927726    1.50204677194212
H           1.52940588694930   -0.26052385159777    0.13530370079236
H           1.14577204296487    0.39735562463784    1.84035142217078
H           1.52449331188864   -1.12341945549723    1.80670952461608
