    19
        -40.91209431
S           0.58209518762563    1.77387405490858    0.52690462302604
O           1.40849904548424    2.18094169950974   -0.56269830931237
O          -0.85293591908856    1.58353099783751    0.05400766003125
O           0.99839256676426    0.64166399596567    1.29949209256941
O           0.48437895198729    2.99491312756738    1.52854460067317
H           0.52256599509358    3.80071832703557    1.01647501312234
O          -1.81045000007554   -2.16480298392216   -0.06569563202608
H          -1.09057778432475   -2.04705927488570   -0.72928136659568
H          -2.63208284641478   -2.11063247023085   -0.55685898496829
O           2.15232281622652   -0.43236694474077   -0.93461537722394
H           1.98546942942055   -0.38825916216931    0.01620039510408
H           2.12842401727484    0.49100595984926   -1.21830030618668
O           0.08780034120901   -1.83445940997151   -1.90744337774046
H           0.84724169291836   -1.29373642640923   -1.59280503267077
H           0.47012002970188   -2.64291932090776   -2.25346984713178
O          -1.58223486116737   -0.18002714550569    1.62923951562226
H          -1.71618024951070   -0.98497382492449    1.05391503591903
H          -0.68953839727819   -0.25705980936804    1.99294904952281
H          -1.29331001588318    0.86964860034855    0.70344023824011
