    19
        -40.92453799
S           0.42138453786141    0.39481512495285    1.41031752296633
O          -0.41002936568116   -0.79719869834009    1.53063437496583
O           1.63386957654805    0.10620849559209    0.65191552558518
O          -0.30785946087069    1.52850188067017    0.88198930492686
O           0.87545689522074    0.79558436520515    2.86904019853847
H           1.36787560350114    0.04506559508028    3.18857009533633
O           0.78881457799591   -1.97171862563483   -0.64699807157906
H           0.21274305980396   -2.32763041966820    0.03976372265936
H           1.28510048236458   -1.25027612295800   -0.18293699776144
O          -2.28159329502845   -0.07906970718415   -0.12564031345223
H          -1.71129087087385   -0.46050231882147    0.58777033106090
H          -2.28288920840978    0.86577690981529    0.06696711677655
O          -0.66184353820645   -0.43867873207426   -2.02302258531013
H          -0.06337297114613   -1.17387973768086   -1.58260324850668
H          -1.44419818891976   -0.30322247044174   -1.34064846917302
O           0.73804042935442    1.58956955853091   -1.49416420686836
H          -0.09016824973383    0.43547072716196   -1.95524070676221
H           0.31787278761863    1.78261693030436   -0.62027217989232
H           1.61208719861387    1.25856723547572   -1.25544141350007
