    19
        -40.92174070
S          -0.40681128552130   -0.40636666540954   -0.68790481535287
O          -1.26037885969287    0.22596865476398    0.39607474849533
O           0.20928701671481    0.62126003229136   -1.50047467666340
O           0.51228265672657   -1.34880766256398   -0.12042157706475
O          -1.43325648869770   -1.16933907206209   -1.55299912766609
H          -1.86479745945666   -0.48449712682271   -2.12661193546257
O          -1.96460262116377    0.93354738513916   -2.97948610932535
H          -1.79439926245131    0.88097424146617   -3.92337140912541
H          -1.12358705440879    1.18138125086205   -2.55269736020659
O           0.83948243041166   -1.63257128239523    2.53608396850076
H           0.80827195143814   -1.67961462917307    1.56165750941555
H           0.23039721532506   -2.29820086903329    2.86006876232461
O           2.11552919024901    1.08306663303942    0.36498086890072
H           1.55158899691676    1.07798597166658   -0.42594422788981
H           2.54021879690956    0.22159091479568    0.38962139690407
O           0.23193177764641    0.93883958259906    2.23181537462239
H           1.01240256670703    1.20538086181150    1.69084434537220
H          -0.67357087921460    0.59122649493905    1.23538203523821
H           0.47001130135771    0.05817528393058    2.60338223888063
