    19
        -40.92343623
S          -1.28945416225279   -0.84977318537848    0.67884367213266
O           0.09324603520548   -1.29926270936110    0.71180553096783
O          -1.47750329385217    0.42001351627290    1.34757569658422
O          -1.82006812077358   -0.83212892242980   -0.68518142696201
O          -2.12403243172062   -1.93082266626464    1.46443471784043
H          -3.01146193106393   -1.59002909363877    1.41084819400504
O          -0.02348854086922    2.08835784002933   -0.04840105018895
H           0.83291866423314    1.80162702525939    0.33227715748947
H          -0.69406164804656    1.65241943991901    0.52966714221136
O           1.90594043975824    0.60349218787984    1.08712461878180
H           1.25474315415441   -0.13247551504746    1.09208605640632
H           2.12984107667672    0.76951189770389    2.00383120551400
O           1.66634708533031   -0.91393478797364   -1.40911979224091
H           1.13853547089715   -1.33071529549663   -0.69644233336854
H           2.34616161949353   -0.40609740235120   -0.95260175137947
O          -0.29005289972419    0.59328970254886   -2.02451432421043
H          -0.16852038187964    1.35558120353807   -1.28535837062936
H           0.55673243976669    0.01415268401086   -1.96243021948206
H          -1.02582258369176   -0.01320590857829   -1.59444471363155
