    19
        -40.90738844
S          -0.47607950972418    0.27815072924776   -0.09808534975483
O          -0.04829927943233   -0.38164542914379    1.10387579408949
O          -0.09309004345380    1.65780522958557   -0.17808428521553
O           0.01618252460747   -0.47128837617804   -1.34095849847879
O          -2.01985126168250    0.13094069102747   -0.25010399961664
H          -2.38818445981132    0.63399662729808    0.51064576856876
O           2.62272047100826   -0.43150509957566    0.70354416226561
H           2.93160578180851   -1.33933112872026    0.74781331412927
H           1.70023488369784   -0.44062574414488    1.01777292657617
O          -1.94148690537078    1.58952861294684    1.91421816768919
H          -1.40289656889988    0.98117917966766    2.43100815372856
H          -1.32709007200173    2.19546090856004    1.48263335691698
O          -1.64926907099650   -2.76276406907569   -0.83314721850376
H          -2.42086333529220   -2.22964821197989   -0.63206225709599
H          -0.98244060594675   -2.14841312711188   -1.15153102680973
O           2.16816200269009    0.76547766574097   -1.62457422405886
H           1.81561149441108    1.62228610499749   -1.35478529120590
H           2.57898239566756    0.37542893154103   -0.81684154274480
H           0.91605157865281   -0.02503348459394   -1.63133796045819
