    19
        -40.91864556
S          -0.09118843449399   -0.75863884004581    0.90028648562982
O          -0.62065196102717   -0.72006512459394   -0.57486152194214
O           0.58916450830393    0.49163034206879    1.14368009883234
O          -1.17680814174223   -1.07655840029821    1.76065760548523
O           0.93902859834021   -1.88584458871631    0.84597451929201
H           1.81760811838793   -1.46334009836331    0.52176683709413
O           2.87420856237161   -0.49546570260376    0.01068905779192
H           2.52558733382924    0.26232050998560    0.49962889685448
H           2.59547617750191   -0.35957275869660   -0.92088391248763
O          -1.41563137481193    2.26100596305660    0.84880656137014
H          -1.07744415590086    3.00446788088884    0.34566081304565
H          -0.64506602598668    1.71290004061957    1.08857806959493
O           1.49846504914188   -0.26866017357978   -2.28161473270027
H           0.66048539019701   -0.37481079314638   -1.80315866675825
H           1.52135707173529   -0.95119553708578   -2.95517150501099
O          -2.88436224260254    0.20971190121194   -0.00719316591844
H          -1.59127900956208   -0.37793631985359   -0.50413877967476
H          -2.95575564231731   -0.30543892770369    0.80671960212698
H          -2.56319384132396    1.09549062688436    0.27457373737347
