    19
        -40.92267746
S           0.15685766837759    0.26962863128719    1.01884699840408
O          -0.23029864412324   -1.07725377526210    1.41187389514093
O           1.19756872531362    0.20394451396888   -0.03733414318677
O          -0.96134790353666    1.07340636937987    0.58064135306870
O           0.81735523208506    0.97986421713432    2.23315752919473
H           1.53588106343728    0.35904997167218    2.48754625601517
O           2.35209639581269   -1.14684407997485    2.17581823374088
H           2.68988164393261   -0.97614011770064    1.29065718191153
H           1.48121409045212   -1.55538900079760    2.04679853103984
O          -1.20648761762587    1.95898129575588   -1.86090820590373
H          -1.23486061673643    1.75386338927380   -0.89368502238343
H          -0.71911224143415    2.78044400214945   -1.94854750279713
O          -1.68731435758095   -1.53440037470978   -0.71806001863851
H          -1.19009266604096   -1.52747300893504    0.13452997104185
H          -2.45441863805966   -0.97460305816663   -0.56980417444788
O          -0.00120075215519   -0.26094461183381   -2.12831969652986
H           0.64356816539898   -0.07943435579518   -1.27224559747153
H          -0.70972207514362   -0.88638130709640   -1.71683539916918
H          -0.47956744784764    0.63968130435968   -2.23413017870294
