    19
        -40.91790593
S           0.36428379825952    0.75360328953734   -0.59321698605169
O          -0.31705753365004   -0.47722762503757   -0.90304802101518
O          -0.48569720015749    1.80603435194239   -0.11559086883880
O           1.49718912255954    0.50558118040815    0.38533922157797
O           1.12764414398235    1.23739256690449   -1.86556914674431
H           0.42097402712923    1.43754013091148   -2.51436146319362
O          -1.34485071575795    1.39851612479026   -2.73641312449394
H          -1.51673002329615    0.48636551678933   -2.47772840930298
H          -1.59642948337365    1.94195400636088   -1.98080318635981
O          -0.78392093393462   -1.95792348484222    1.35049536596282
H          -0.94648406815273   -1.62666975611340    0.45440635677678
H          -0.90972868954778   -1.17786635302419    1.92194063388142
O          -0.75483942331915    0.59347322955167    2.31605596251437
H          -0.81528138892880    1.15371413080568    1.52680041842080
H           0.04624552790413    0.86029877949076    2.77192505849442
O           1.74215933277727   -1.94106449198141    0.80275465531645
H           0.80523116658025   -2.08879287890767    1.14361370064185
H           1.78634993423737   -2.38333879045570   -0.04890120914550
H           1.68094241665936   -0.52158987717781    0.56230104152087
