    19
        -40.92136409
S           0.37568006113896    0.27937936266775   -1.30507242376143
O           0.29153120577587   -1.03572878650105   -0.71080787134143
O          -0.60011730608603    0.52827886404896   -2.33690278283281
O           0.37062400982007    1.32493712655745   -0.26671607344922
O           1.80788020441641    0.38012236621545   -1.98332637781552
H           1.68227388657707    0.99019733092017   -2.70459156271061
O           2.20012518069312    0.31812003859139    1.41982185653263
H           2.88267446220822   -0.08007292735141    0.87689790715254
H           1.63566266898126    0.83074674378334    0.81083750002899
O          -2.49927849342634   -0.42359515545888   -0.77735189800120
H          -2.30023866482950   -1.36335025350302   -0.81365719804814
H          -1.93526174386470   -0.01300946836434   -1.47145609035197
O           0.08729632887047   -1.23470433617962    1.89353629646705
H           0.18128928014689   -1.45910302153466    0.93945279653256
H           0.92212719523656   -0.75126239421820    2.08115461733993
O          -1.45185696702837    0.61527035202146    1.30507799568354
H          -0.74073323534499    1.10032248783064    0.74535593613346
H          -2.04591938386432    0.20446818081623    0.57933782491949
H          -0.86375870940435   -0.21101650034509    1.71840955750538
