    19
        -40.92136386
S           0.00653670826257    0.00604982620702   -1.38675898190212
O           0.73279126937031    1.02737141553146   -0.61123636926188
O           0.89565596136054   -0.84169258372544   -2.14163898190764
O          -0.92798204417620   -0.70908968552844   -0.54727378429673
O          -0.85998693311564    0.82499668806028   -2.43516935699614
H          -0.29197020527406    0.90474399530100   -3.19623215722292
O          -1.31997383158696    2.18060671029786    0.67896482337619
H          -0.53467034489746    1.92708178850949    0.15821933980697
H          -2.05173588643091    2.20614395831563    0.06011664111134
O           1.41543315174486   -2.24229317054206    0.02858532573702
H           1.36455500946482   -1.82010226205116   -0.85901909354693
H           0.59186560614559   -2.72868222779997    0.12467134951192
O          -1.04684497302416   -0.11644244194383    2.00291488177555
H          -1.26610054020568    0.83064422068055    1.85985778465603
H          -1.23492694032124   -0.51406661216975    1.12222711244625
O           1.37980289088709   -0.15960690233213    1.50189966132053
H           1.51183641315985   -1.07369466582437    1.05907077688351
H           1.27690554504758    0.45665131534227    0.68652287246463
H           0.35880915355837   -0.15861935627994    1.89427815598155
