    19
        -40.92179434
S           0.74909013452160    0.59403295196754    0.10487594895920
O          -0.57250036050657    0.91745374164724   -0.64578256359099
O           0.63069866306635   -0.73682393227199    0.66635646612312
O           1.86368172783530    0.77646029577230   -0.76189553006174
O           0.74835222519474    1.62640281427925    1.22708652712427
H          -0.20247686264876    1.65901981943338    1.61787104257273
O          -1.51182543195130   -1.09656003915755    2.20351761505654
H          -1.23496133862492   -1.52589381434551    3.01525670405481
H          -0.73541340239656   -1.10597472298339    1.60694146974668
O           1.34770709077547   -1.93705744911708   -1.65087154880311
H           2.27771744449716   -1.69878811708347   -1.68684394239855
H           1.06090636954198   -1.71485333164793   -0.74891422339432
O          -1.66793320676428    1.52466377550646    1.96510525614289
H          -1.75357104308233    0.56003886003280    2.16977298326073
H          -2.10918146070784    1.65501993267938    1.12049595558926
O           0.13879021208456    0.06468001690507   -2.92221109270257
H           0.90758820367934    0.62785184943684   -3.05540562314261
H           0.49972903431467   -0.80251659106785   -2.61597532842170
H          -0.43639800881838    0.61284395000091   -1.60938013612041
