    19
        -40.91058096
S           1.57345707766321    1.12315747898160    0.15911603362400
O           0.50014968600074    1.86076585243369    0.94889407191132
O           2.00284291393718   -0.04134166751879    0.88304215169199
O           1.17255462868045    0.92383841382949   -1.19555542281502
O           2.74882279626366    2.15820734198100    0.17349660720022
H           3.10854960436253    2.13792820636488    1.05731494884027
O          -1.31294470030164   -2.52443874605826   -1.15517809395899
H          -0.84432838413246   -2.38061608686764   -0.32521382190079
H          -1.40175549528245   -1.65543631480725   -1.56166099719167
O          -0.06673337118387   -1.64905110965451    1.30686893236165
H           0.09090344509098   -2.26015936468926    2.02888185396599
H           0.77325254801588   -1.17213706248421    1.14661323428464
O          -1.33729249003899    0.29422851608093   -1.83454176398482
H          -0.38104032922229    0.47996599801524   -1.74790457672225
H          -1.64923164832599    0.78762038566827   -2.59494186766503
O          -1.57150425831738    0.51349009526158    0.82104855878664
H          -1.72658708167950    0.43736218410831   -0.14547051024450
H          -1.24191545468465   -0.36493875203915    1.10418068509178
H          -0.43719947687197    1.33155461149497    0.93100998669320
