    19
        -40.92021791
S          -0.63879609904438   -0.53511861849203    0.65764203196474
O           0.19562962882919    0.42120596893694    1.36392303191512
O          -1.23950982246195    0.13243777241913   -0.56557148209762
O           0.00989251453580   -1.75903793141944    0.30793201751281
O          -1.86932287432696   -0.84961699533182    1.53663996474099
H          -2.12300383177003    0.00893929213279    1.95834937096197
O           2.08004030991566    1.31543702130684   -0.32966010400338
H           2.19406700667053    2.25126940337663   -0.15322070546600
H           1.50967836823422    0.96407615646594    0.38044686471303
O           1.06402093027161   -2.21229303332245   -2.12095858130956
H           0.80278868789510   -2.18873035167493   -1.18065544440957
H           0.50108498274149   -2.86559619358924   -2.54052173573717
O          -1.84733963560580    1.51594883829391    2.62177004110022
H          -1.74481604636173    1.52512300816690    3.57667312716155
H          -0.95411488059644    1.41961695506407    2.23989432305230
O           0.52795243702266    0.37262441510568   -2.26841410888487
H           0.80646601449747   -0.56742478418143   -2.39915041864248
H          -0.50850534889577    0.26846292849903   -1.36854545677258
H           1.23378764845120    0.78267616824424   -1.71657275579958
