    19
        -40.92453740
S           0.66807933826429   -1.36427863668008   -0.12125500375835
O          -0.74784287550352   -1.58860598917100    0.14987925791604
O           0.84921954535068   -0.68473453156181   -1.39865670655630
O           1.34207390529370   -0.68770665514905    0.96694026247896
O           1.34228673116685   -2.78683842534184   -0.24944882881776
H           0.86471520783465   -3.22359312545111   -0.94873214812212
O           1.52332602887766    1.64359996222941   -0.45739952513962
H           1.37224191431094    0.81200342821638   -0.97249652108647
H           2.01604386354580    1.34431799921898    0.31562212411992
O          -0.86511214405303    1.97431797713884    0.27667346130727
H          -1.33551457335182    1.38044878336576   -0.44359980803833
H           0.13886822367361    1.98901709678543   -0.02003662904928
O          -1.72815053484914    0.27080554395915   -1.36705233107983
H          -1.06661527345704    0.22761000698137   -2.06761683199814
H          -1.52505230660413   -0.52092648507145   -0.80677523536609
O          -0.74217438429975    0.30193875225159    2.15843456035008
H           0.13669856232886   -0.07485005374870    1.90728148591922
H          -0.88136559485950    1.38977966510951    1.14490289880969
H          -1.36172564363585   -0.40230530307931    1.93333551811323
