    19
        -40.92267744
S           0.83680981124379    0.63990268045665   -0.15797049282044
O          -0.06441830674563    0.65606676088969    1.02134938327294
O           1.71130860636666   -0.52167260995843   -0.09217849138530
O           0.07169443969240    0.70204375882466   -1.38247734657695
O           1.69997581875510    1.92828203770281   -0.06023791556620
H           2.20695830942759    1.79136682959572    0.77079440026336
O          -0.12679821208093   -2.23819590463341   -0.83073426786258
H          -0.24363657820296   -2.02742859553982   -1.76121163968473
H           0.67482654200743   -1.73621699743668   -0.54860555917817
O           2.54699090691191    0.75599602763370    2.12798736836062
H           1.68113727800414    0.73743310587269    2.54844887976222
H           2.55304013908296    0.00486768322580    1.51331541344084
O          -1.85142608782636   -0.94931727780324    0.51750172121564
H          -1.10963555543058   -0.23518270947240    0.86686967527214
H          -1.25714768109319   -1.62949967840305    0.02057978105651
O          -2.52990434784673    0.51185305559755   -1.44713675217288
H          -1.56224225074047    0.65837653741573   -1.58916572355215
H          -2.32351868310570   -0.42539766051259   -0.22618128664213
H          -2.91401414851181    1.37672294657204   -1.29094714716597
