    19
        -40.91724255
S           0.51232150516598   -0.49032167483349    0.83482592596363
O           0.94791492785901    0.46519155049953   -0.29058803130367
O           0.07231243551107    0.27315028013054    1.96512996964603
O          -0.43782731190443   -1.44182496051834    0.33410412624676
O           1.82727522085410   -1.23409774101727    1.16137504855638
H           2.49850052140202   -0.52527992048154    1.31258094853462
O           3.28506427316534    0.92722960736989    1.03286611531501
H           4.04369498630109    0.86533002438230    0.44628076119509
H           2.53898579986209    1.23880383209375    0.50076293515533
O          -2.32424826578447    0.74025595459406    0.87207248929389
H          -2.66370773554803   -0.15754064561822    0.90056590138013
H          -1.53683148662284    0.73332024900476    1.44729240698764
O          -1.44786540768252   -1.38273940644745   -2.14501919661137
H          -1.02656692052943   -1.56870322313210   -1.28310969275723
H          -2.22462629626450   -1.94220036571424   -2.19741157431006
O          -1.11245350667513    1.16291607273227   -1.44692624761973
H          -1.32019093524895    0.33338090142661   -1.93387259204209
H          -1.71129296876707    1.17249381059440   -0.65979874321136
H           0.07954117489570    0.83063565490579   -0.85113055050726
