    19
        -40.92246929
S          -0.38364092742499   -0.06090994801863   -0.99697632167175
O           0.02115046975378    1.30138832894938   -1.25501516072929
O           0.79526624918416   -0.82502326664711   -0.40003919224969
O          -1.54718987428087   -0.20494773702159   -0.17532331770244
O          -0.61464805286752   -0.79089247072706   -2.33805768316412
H           0.20136940730865   -0.59128198501913   -2.86177978296916
O           1.69808842462293    0.17458928876081   -3.03170631830982
H           2.33769428174881   -0.26139638540395   -2.46164818703191
H           1.35165793396948    0.93040078139041   -2.52996150457610
O          -1.53351614232162   -1.32718416934186    2.26821696239740
H          -1.71735154554100   -0.92578774779967    1.39770206015756
H          -1.77037921416081   -2.25329645971071    2.19631988767181
O          -0.18769043639251    2.00901284189859    1.34216516734953
H          -0.07281029340894    1.97693414267480    0.37695552907786
H          -1.13211639683763    1.92945538002369    1.49784364099497
O           0.90121648477007   -0.31148726313101    2.00754770419528
H           0.64816633648273    0.64224261869917    1.95624885966073
H           0.08991169378942   -0.77084782762751    2.33013881129727
H           0.91482160160983   -0.64096813196534    0.67736883560061
