    19
        -40.90776153
S          -1.17957413898088   -1.00246430595046   -1.64738717487469
O          -0.75447441066498   -2.33360303956830   -1.03666620304912
O          -1.95124448713964   -1.20457285587695   -2.81757118491258
O          -1.67343012155877   -0.12310938649392   -0.62651306959666
O           0.21265426867733   -0.36153337849001   -2.10109479501513
H           0.48771721778310   -0.83673225541328   -2.88201968010189
O          -0.24003202126387    2.17399749315165   -0.71699565251805
H          -0.87780175081817    1.44152145323056   -0.65473528152368
H           0.38986369472344    1.90243990749151   -1.38865797485718
O           0.96303292777059    2.11208669363757    1.67058997631558
H           0.55671228667642    2.24875272048013    0.78407033697618
H           0.29861114233024    2.37611923424564    2.30893619078082
O           1.77935208857904   -0.42139688125532    1.48086863156740
H           2.40605969893620   -0.59761491288958    2.18404532454978
H           1.54663127670447    0.53362853185776    1.54702338299408
O          -0.55844257658422   -1.62016997882601    1.33867887046123
H          -0.62487227263043   -2.17128499651342   -0.01117736192961
H           0.35643685245317   -1.24518479741065    1.42847807669763
H          -1.13719966493933   -0.87087925537168    1.14012757804105
