    19
        -40.92022128
S           0.19418044689226   -0.53334260164718   -0.73127310367641
O          -0.01088501837644   -1.23575157282012    0.50924885764098
O          -0.66401966338656   -1.11815540589027   -1.85268072879599
O          -0.05538659579225    0.88619205523698   -0.63530008184391
O           1.62167607086917   -0.79121688858042   -1.22559847417265
H           2.21105438797786   -0.90753086350222   -0.39382989264254
O           1.76454487059874    1.58601840657037    1.20758622656571
H           2.27850777521146    2.31946816485757    0.86317471793519
H           1.03163949854315    1.44320389450495    0.57829495040428
O           2.71108928494922   -0.91081127398628    1.05377301012407
H           1.99247863099632   -1.41898469281081    1.44802821053706
H           2.52643317824818    0.02734509860114    1.28570567815313
O          -2.47584277568192   -0.26397372319171    0.98856101058292
H          -2.33871325461538    0.43608036593694    1.63043489773208
H          -1.63553069264689   -0.75434481500730    0.93972095783909
O          -2.65247197380685    0.42222196573690   -1.58766788189451
H          -1.53586504368545   -0.57779107699780   -1.89140304137584
H          -2.83858979361420    0.16498239566016   -0.65592086418947
H          -2.12429932267389    1.22639056734221   -1.53085443892017
