    19
        -40.92079110
S           1.03642032031980   -0.16627296616195   -1.05146360496562
O           1.75543367102567   -1.39161395279877   -0.81573423646105
O          -0.33255856537271   -0.39865084646577   -1.51609912432237
O           1.05887032256978    0.76518113472416    0.06790934987106
O           1.77231408613705    0.59069047769362   -2.23064494137312
H           1.85260347627549   -0.07695141791207   -2.90467247335673
O           0.20255513681015   -2.62284527915811    0.93290592347978
H           0.77254640941653   -2.25226647757303    0.22457938842820
H           0.73356173627954   -3.28074601594604    1.38572241514431
O          -0.57918062339222   -0.29295601489179    1.88562688763208
H          -0.42013100524531   -1.24993627817294    1.70870691152292
H           0.18552013645258    0.15166439585062    1.46692283353285
O          -0.71601554348851    2.69338382541128   -0.03617836997351
H           0.07699866494289    2.10871194039972   -0.08427183127615
H          -0.59732279584716    3.25212461262296    0.73455325432304
O          -2.04088918951709    0.50435046681419    0.03098209208215
H          -1.43349391650268    0.06574862300306   -0.71056050502645
H          -1.58146380154978    0.12564395129185    0.91585890358416
H          -1.74576852958027    1.47473982047485   -0.00414285244941
