    19
        -40.92343660
S          -0.59743335825507   -0.70180505482035   -1.41281711387122
O           0.73940943167247   -1.29064494534131   -1.50396798602591
O          -1.42687788586285   -1.39243785021461   -0.44847234186580
O          -0.53862889256710    0.73156371804248   -1.17368270317289
O          -1.25879605967379   -0.88582264984955   -2.83075715054578
H          -1.25873188347898   -1.83155852901804   -2.94068527444627
O          -0.21973080645225   -0.97520457618459    1.83448198731217
H          -0.75403864541333   -1.32463239435967    1.08183722083466
H          -0.53909098480093   -0.05434243289326    1.93823278722644
O          -1.10849157711459    1.50295474180942    1.30178762677229
H          -1.03564872013156    1.26156273573485    0.35199166380971
H          -2.03326911294121    1.69845881148756    1.45872011772979
O           1.55514582303104    1.77945287366055    0.10679728457141
H           0.88775969460234    1.55843851795492   -0.57577549371520
H           1.05602145981300    2.19011859400835    0.82145579654077
O           1.92340132178900   -0.69118920452353    0.59546557030955
H           1.95735368635785    0.32821947797422    0.46960168229022
H           1.09526436424955   -0.87039601471244    1.24797736466676
H           1.55638215517213   -1.03273580874982   -0.32219103842839
