    19
        -40.92003345
S           0.56831526503818    0.36850322805617   -0.56015205240103
O           1.06615437006407    1.81557052694859   -0.53637818358548
O           1.09758675344146   -0.36973089063469    0.55867797433253
O          -0.87425892546657    0.35371403527000   -0.61432982353142
O           1.16209376548204   -0.14658509357372   -1.87291885311450
H           0.88633745680042   -1.11579163246408   -2.04128294484900
O          -0.99094046161683   -2.23118422832256    0.13197335913099
H          -0.28607481877316   -2.16103948547867    0.78389431101812
H          -1.23842060856612   -1.31144058973289   -0.06741961159233
O           0.26442635769008   -2.50901527421313   -2.16241948678917
H          -0.39528938876353   -2.52702227860824   -2.86016132124080
H          -0.22792255160376   -2.59121407400262   -1.30390612139345
O           0.16606624953385    1.07279317831217    2.61612686958582
H           0.53476548843174    0.44788719128955    1.96241027799542
H           0.89175876686519    1.32254051795283    3.19177249916309
O          -0.85589206275354    2.75088784054715    0.80757840141842
H           0.35044230756477    2.36248859506762   -0.04356081028135
H          -1.50916265908190    2.18822305891356    0.37440900785172
H          -0.60998532432054    2.28041537464341    1.63568648825592
