    19
        -40.91833240
S           1.14288795696811    1.26365721995792    0.27411074592473
O          -0.06768987846115    1.71982702237120   -0.42690129991053
O           1.08903592350858    1.55509876276130    1.68499744472782
O           1.44622421195965   -0.11753209261018   -0.04474256400965
O           2.33107824518179    2.12205065439927   -0.32661914689770
H           2.22727131876428    2.96785750631317    0.09866385954796
O          -0.04823584145091   -0.76162373976387    2.19742520911699
H           0.29186469307207    0.15815036730477    2.17931703315211
H           0.66326427032896   -1.27572953766634    1.80493398605599
O           0.57891051420596   -1.37580265150676   -2.13716823322952
H           1.06968997900768   -0.90315163273475   -1.41711655128319
H           0.60267328830434   -2.30880809937535   -1.91485602532212
O          -2.16402363356012   -1.09689232065977    0.69302039374197
H          -1.37285168461640   -1.00625917576384    1.29386620300413
H          -2.89048127607380   -0.66441833671452    1.14559515988883
O          -1.45848758930055   -0.00177807380083   -1.48766950493167
H          -0.73778734012601   -0.61033992523530   -1.88712822178096
H          -1.81945956922241   -0.47890466933590   -0.64920094146435
H          -0.88388358849204    0.81459876206030   -1.08052756632969
