    19
        -40.91892632
S           0.94102680001374   -0.31771197493847    1.03569916375098
O           0.49047472995942    0.36835426163778    2.22746682963761
O          -0.04508328917048   -1.32000611316401    0.58945634664329
O           1.32366989525558    0.54978715028232   -0.05056082789208
O           2.22840643357608   -1.14523872458320    1.43377719915145
H           2.02194951810785   -1.51217774163691    2.28844904547008
O          -1.55445337892338    1.72455732232736    1.37467745693828
H          -0.73314132945187    1.31988950169225    1.75520347076342
H          -2.17937810044426    1.79905464581614    2.09923224129480
O           1.18308315602346   -1.36110998287422   -1.95294061492696
H           1.55331766214717   -0.75244565398479   -1.29184788928325
H           0.70887101268911   -2.02093166096437   -1.43858185861253
O          -0.28546884632633    0.84970294502711   -2.26092044167057
H           0.16810808915219    0.01217627331839   -2.50807718205827
H           0.34568935068780    1.27296711349084   -1.65746414262843
O          -1.83727694557518    0.01660180840591   -0.48526195314568
H          -1.87748357527013    0.77106673015913    0.20535966657466
H          -1.29337135171287    0.40249216542087   -1.31725703667342
H          -1.15893982233901   -0.65702806425288   -0.04640947384001
