    19
        -40.91146649
S           0.20809744061129    0.23928747430204   -1.09367447577334
O           1.36401223374496    1.01776380024624   -0.62134291961437
O           0.48808009785140   -1.17778349870024   -1.02412130818700
O          -1.00894467059609    0.63264213867440   -0.42104572436955
O           0.03919794602001    0.62657465521289   -2.61582021226985
H           0.89824785123867    0.46468810808410   -2.99513586000709
O          -0.93104540064001    1.35795748834451    2.08918572406808
H          -1.09396923808113    1.21594251474604    1.12591124442872
H          -1.51054633012777    0.74659371685408    2.55013374476366
O           1.48561348332061    0.66469038034317    1.81678644953939
H           0.55482317167377    1.02629333710084    2.08549358595289
H           1.54209487853051    0.90779604789641    0.77890538492621
O          -2.53730468972715   -0.75859082689232   -2.25882153287922
H          -2.12279612596491   -0.29926835651811   -1.51834250315939
H          -2.14250087802901   -0.38435520824871   -3.04821893151294
O           0.99414358004076   -1.78580327523938    1.43318358802847
H           0.72201071423516   -1.66810210727474    0.48291905224914
H           1.67153491637637   -2.46548314827075    1.43390359224508
H           1.37925102939045   -0.36084326060184    1.80010110155656
