    19
        -40.91346203
S          -1.54801301819733    0.38823011065576   -1.28312655550038
O          -2.27838209482076    0.44704335056088    0.04848362262237
O          -1.10827655289471    1.68712161349555   -1.68734626365612
O          -0.53492190694110   -0.63054334051479   -1.26276876879595
O          -2.67945054523710   -0.08550533767690   -2.26291679071072
H          -3.24721057185368    0.66594108347660   -2.42199665145724
O           0.36850692099497   -1.97385305892062    1.02960068847075
H           0.04160912046269   -1.86964384587023    0.12536384619700
H           1.32901186544802   -1.80621402487462    0.98348385439621
O           1.23210991662786    1.14392693575170   -0.26430575492483
H           0.97240311904789    1.94954845344943   -0.72150423471379
H           0.78659406656915    0.43212524366771   -0.75807105177872
O           2.86450617161534   -0.84101582696178    0.87346748691506
H           3.27985123343297   -0.54588529574853    1.68554261785476
H           2.54028592258221   -0.05075807803525    0.41863899015518
O          -0.47357628649298    0.38009168505994    1.73114160819878
H          -1.56180906646839    0.43506600871037    0.85984947643700
H          -0.20855160353924   -0.58626125648517    1.65935471206662
H           0.22531329963386    0.86058558024499    1.24710914827060
