    19
        -40.91271957
S          -0.05703579881687   -0.02473597709710    0.53488467091487
O           0.57104918363717   -0.18969709803420   -0.75599097497527
O           0.48154706042293   -1.09059209291048    1.50916634829291
O           0.05467782483768    1.27362762948258    1.11452527779870
O          -1.54419123369902   -0.40732619265697    0.39202333150108
H          -1.57055259165374   -1.13442196317697   -0.32760625968826
O           2.78790606146573    1.14529680035612    0.02606327581853
H           2.11799605282300    0.60937973735357   -0.43216788370217
H           2.45739264189109    2.04666355615046   -0.00206714695629
O          -1.35247052702814   -1.86265351976888   -1.66803236889880
H          -0.45291761252477   -1.50960927730538   -1.75144352358105
H          -1.92317961917397   -1.28111849934933   -2.20084535686002
O          -2.99779777133091    0.28839803146489   -2.10489343466573
H          -3.95716647066642    0.27617241043167   -2.11813660088467
H          -2.73061458399939    0.56081913967489   -1.22056236402682
O           2.33710155876832    0.31816208461999    2.52437611100838
H           2.73055169643609    0.59527703158180    1.66378521457022
H           1.78862976918366    1.05785210794402    2.80447359978048
H           1.25907436921884   -0.67149390894640    2.01244806468141
