    19
        -40.90738840
S           0.10415131831957   -0.54292390434642    0.05955317694401
O           0.04738206890961   -0.77593570406993    1.47349508473985
O          -1.06723661283662    0.08961974447875   -0.47945044494536
O           1.36664789306001    0.25424696697147   -0.28594251873933
O           0.37205969694719   -1.87557405310364   -0.70208340761254
H          -0.39848055269242   -2.44373151770563   -0.47623297136596
O           1.17680989890374   -0.31388823140160   -3.10152921315880
H           0.98276909550509   -1.24246233539828   -2.95945580819048
H           1.39235222951635    0.04367785258828   -2.23593135377719
O          -1.89942097910475   -2.48327873756284    0.43296871499707
H          -1.55829340495846   -2.16532734443027    1.27770832660351
H          -2.40674033460267   -1.75700244596951    0.05582048352911
O          -0.84587257492769    2.53898550722905    0.63929438742906
H          -0.84024836708637    3.20322831363854   -0.05366977381367
H          -1.09506624662440    1.69942650437632    0.21181102091841
O           1.40721601852243    1.68616487982126    1.76073425963373
H           0.60669797688704    2.20067105799347    1.50052089973533
H           1.09515664156198    0.99646045870434    2.35919761800203
H           1.56011621471701    0.88764299817836    0.52319151906457
