    19
        -40.91893380
S          -0.79755314715710    1.32516151166549   -0.79028176220797
O          -1.42782404337560    0.68751451535790    0.34904616634514
O          -0.00866643747508    2.49038155485006   -0.47937261667830
O          -0.04916155927794    0.34768710858142   -1.59493974301536
O          -1.98246934207587    1.82198765610335   -1.72238440201035
H          -1.58704586280907    2.54222908601888   -2.20402174138522
O           1.03410166184530    1.16298160967678    1.54828605796553
H           0.80486570530676    1.78007802940415    0.82368327949106
H           0.18360236304491    0.91027611520963    1.91984596667525
O           2.38199354621544   -0.94323916513993    0.75975707943548
H           3.12438286648635   -0.60408284836595    0.25582404658898
H           1.92240982683045   -0.14848334764035    1.14358144222687
O          -1.52686803016589   -1.86071569201017    0.80321163923501
H          -2.35823552181223   -2.19719395364138    0.46383216193460
H          -1.57332568167800   -0.87261914335101    0.72470103842394
O           0.52629354444637   -1.86614234250417   -0.68867379981900
H           1.32904387048620   -1.60390613486730   -0.08831253279275
H          -0.26813614029676   -2.03160603709301   -0.06219993819271
H           0.27259238145710   -0.94030853225593   -1.16158235222701
