    19
        -40.91864557
S           0.68719667447094    0.72475060814635   -0.63037778743664
O           0.36285096446054    0.56050871477183    0.89470392513786
O          -0.14170006756482   -0.21478235057908   -1.34826119235124
O           0.54855903115793    2.09642697373654   -0.97562998776011
O           2.14245271369738    0.26486249689003   -0.70410381906611
H           2.12163155052101   -0.75777902789326   -0.80142432570587
O           1.67728000560799   -2.20896095877119   -0.90280024916605
H           0.86533030839100   -2.00702818321792   -1.38718802963868
H           1.39452312023580   -2.40136415988118    0.01755141462989
O          -2.61220376260763    0.67254914145560   -0.76177649288571
H          -3.15980511881513   -0.09222785180430   -0.57325522211289
H          -1.77567468484087    0.33239921000048   -1.13118861267240
O           0.78435265611167   -2.06579987826863    1.62295664224100
H           1.38027287447973   -2.10040128840959    2.37382215246023
H           0.54425461190567   -1.13332902082825    1.49890288028689
O          -1.42632599144845    2.32278016134025    0.96052527670371
H          -2.07501617004744    1.83469338275606    0.40529743868718
H          -0.36148020635873    1.26785015527402    1.09275429980031
H          -0.95649850936456    2.90485185529494    0.34949167883844
