    19
        -40.91070836
S           1.70782622862324    0.60705285234758    0.51225007381768
O           0.78264830139245   -0.50943384377028    0.99784883224811
O           1.93994976709798    0.46282274071997   -0.89346645656801
O           1.23512647364867    1.85877477621795    0.99795872797472
O           3.07555517834932    0.29305170161567    1.23786042071467
H           3.63363935432275   -0.13785612404626    0.59414249382227
O          -1.28697673671124    2.47127015063044    0.22967311803428
H          -1.58759396985491    3.23622898977064    0.72385031794290
H          -0.35025674968798    2.34394225551841    0.46375852557713
O          -2.04457601715071   -0.08348206496138    0.70290207531988
H          -1.95675915002167    0.86170405936050    0.46859587630489
H          -1.22528631465225   -0.30506721777708    1.15998923468408
O          -1.82974305422375   -1.57795871130963   -1.46887386167086
H          -2.01131774649081   -0.97200038707978   -0.70533868513807
H          -2.42518085416119   -2.32211366477769   -1.36668487926387
O           0.70718153724123   -1.91233934715029   -1.02206060586807
H           0.73460021693355   -1.22305415016601    0.18932319394793
H          -0.26018772232736   -1.86463097540867   -1.28599262062135
H           1.16135125774553   -1.22691104975799   -1.53573578124297
