    19
        -40.91955061
S           0.92324251742269   -0.42205230703826   -0.57624043774534
O           1.25966531392799   -0.21286153210947    0.91203568512208
O          -0.27867562907093   -1.21879107114726   -0.66561977220078
O           0.88927202676461    0.82186292280581   -1.27063258702677
O           2.12347754232885   -1.26299164481619   -1.05540330526018
H           2.02795189115712   -2.11291465865951   -0.55594701223876
O          -2.57772699026411    0.21426269899338   -0.87077604690587
H          -2.93587003775615    0.04336489338306   -1.74369755213531
H          -1.81325486198491   -0.37984783398664   -0.76728327255519
O           1.20839371865197   -3.11876572400254    0.51383806354456
H           0.36909369736755   -2.75274771332708    0.19035934719831
H           1.32145334424646   -2.79225224611580    1.41079520739703
O          -1.12055288996678    2.43808603401058   -0.37471144490094
H          -1.83992104845146    1.78967177965215   -0.51131205866949
H          -0.38709936202666    2.10945605888629   -0.91847465542848
O           0.00257282761524    1.74567079884005    1.83931280567412
H           0.61888259032963    2.44679952546374    2.06438573445773
H          -0.52596462322516    2.07931525698524    1.04548257732539
H           0.73505995291628    0.58473474199255    1.33388874430068
