    19
        -40.91907689
S          -0.89285723264457    0.92497488045067    1.06267033887406
O          -1.44706358841561    0.63928301195796   -0.24082410903099
O          -1.43711018321336    0.12034573513508    2.13129552383779
O           0.58386310795646    0.86125858389673    1.03062094419728
O          -1.23591514772725    2.43492317594262    1.39170876228991
H          -1.18600470557575    2.50143741709853    2.34179760361855
O           0.63178729543081    1.46744062576483   -1.63926446817936
H          -0.29003745182637    1.26360690405752   -1.38537470457958
H           1.04813533792396    1.66717549004388   -0.79086782163588
O          -1.32873081887187   -1.98833751404290    0.57553879851596
H          -1.71166878838369   -1.50474226450541   -0.16805141021476
H          -1.50060762408239   -1.40019879300005    1.34454822603621
O           1.52395912451057   -0.94233301444094   -2.07752912981772
H           1.16907418092132   -0.00611296845138   -2.05662977380489
H           2.42709661837633   -0.88924012516416   -2.39543089195039
O           1.13294805614421   -1.46462550472220    0.36383623823977
H           1.33615566598697   -1.35266232383723   -0.64988636777306
H           1.00662501617682   -0.47997836596681    0.72231620839855
H           0.17035111732912   -1.85221497020028    0.43952603301040
