    19
        -40.92037965
S          -0.64491931267758    0.23129791823937   -0.83296126564819
O           0.52157909406695    1.09475061365747   -0.75087642153036
O          -0.19397660565677   -1.21828189773421   -0.80748285812828
O          -1.63908808012453    0.48391330365298    0.16061947389885
O          -1.26883587904411    0.39156862696812   -2.23495811783605
H          -0.50642854184347    0.45721898491231   -2.86349581339761
O          -1.91505661990947   -0.89167167460525    2.45755589412077
H          -1.85157352848232   -0.23643117012620    3.15569292254142
H          -2.01659954720892   -0.39057789341049    1.62695374933846
O           1.55261802893260    0.63242559719303    1.68103143819967
H           1.17764865686875    0.93838068631822    0.83257777299748
H           2.49999933031341    0.77371997320596    1.62714360154031
O           1.03568552352926    0.88421648816145   -3.33546869399289
H           1.10093692764285    1.73463425129274   -3.77715186624338
H           1.19351758949263    1.04278752862815   -2.38588072832110
O           0.40430571912290   -1.77089442334782    1.52812875813369
H          -0.46227580614614   -1.64216345015445    1.98626346263742
H           0.07883569731294   -1.54426443867333    0.18730798944844
H           0.93362737371844   -0.97062902404528    1.74500070227409
