    19
        -40.91893319
S           1.50207240846740    0.44501132494809    0.75141121606704
O           0.84242623047845   -0.78401835949022    1.14651863882369
O           2.52517009829308    0.29684674269547   -0.25217993788331
O           0.51986989727862    1.47933228375958    0.39235711000711
O           2.22861437609365    0.98634819097393    2.05545586735728
H           2.93845739992883    1.51449719768261    1.70264234313361
O           0.84825450750779   -1.24073331313904   -1.59221631570276
H           0.68074006547980   -1.82703938035967   -0.84821186710848
H           1.56692945979573   -0.65556132837222   -1.27824015449834
O          -1.35094833953169   -0.00390602618426   -2.31362876191889
H          -0.53570601042713   -0.53692945332966   -2.11244122530827
H          -1.08045595431375    0.67073683748782   -2.93958371892543
O          -1.69907810940987   -1.08796527368863    1.54366846554799
H          -0.71187507613300   -1.08814951641587    1.44409619034618
H          -1.87558097531285   -0.97232007917773    2.47914860955487
O          -1.84029632409164    0.91495991671269   -0.00891914034831
H          -1.76354793928644    0.54889263621449   -0.97494164098596
H          -1.95471291747485    0.10296446599070    0.60634760582758
H          -0.84033277727845    1.23703312369555    0.19871671603565
