    19
        -40.91908976
S           0.38734339812713    0.96146221968309    0.61704253004294
O           0.60080215593099    0.54227519591571   -0.80040003965999
O          -1.03398856750918    0.96068919258878    0.90629588899675
O           1.15292905906386    0.13094209083243    1.51380226337972
O           0.92855594219294    2.41319379164720    0.72196101114361
H           0.51692336120488    2.87197986654102   -0.03970984343279
O           1.39595863057560   -2.40773546845239    1.06296775589495
H           0.95188532383426   -2.83205996458739    1.80083918162150
H           1.46092439865398   -1.44586267106139    1.30171121719996
O          -0.01378070616494    2.95448433596121   -1.68291908645757
H           0.64286135941107    3.29137034568094   -2.29698541975802
H           0.11655284840049    1.98819720188828   -1.63478609394923
O          -2.14294006399923   -1.29475062592417    0.40265537156216
H          -2.97074611426591   -1.09807796586771   -0.04094363030898
H          -1.78096247918614   -0.41243247658215    0.70788720969787
O          -0.06129259605285   -1.83518538967655   -0.91527353077520
H           0.26732668485077   -0.82395336713667   -0.98402587870914
H           0.56560565311497   -2.22529767497524   -0.18612840766747
H          -0.98395828775454   -1.73923862643388   -0.45399049796155
