    19
        -40.92218950
S          -0.55480072625216    1.00846953598075   -0.12468848698513
O           0.86798558099382    1.18537642743919    0.14819984177615
O          -0.77858602192254    0.49552764795341   -1.47625117503252
O          -1.17738062178039    0.15181974604812    0.87939635107114
O          -1.23964507002581    2.40521903131900   -0.06625644893915
H          -1.05407410963436    2.68920553251731    0.85295426834832
O           0.25669446520104   -1.73176148892574   -1.72665701578088
H           1.20429924853650   -1.46053887300013   -1.41006266784631
H          -0.23214683704240   -0.78899236730874   -1.76159184850461
O          -0.28620875405951    2.25836630830315    2.38195053751412
H           0.55615598985671    2.06286806889179    1.95032511376742
H          -0.74435608447998    1.40866453964130    2.42488483298504
O           2.36782203455773   -0.70638845757887   -0.79766718614202
H           2.97567816088549   -0.28984414267354   -1.41246545409746
H           1.87365255018828    0.03493752663211   -0.35442007931018
O          -0.94992451280804   -2.38445427784716    0.39196636769614
H          -1.84248048188833   -2.72873310788463    0.31674238846597
H          -0.19940184006009   -2.16995223786870   -0.90701052104195
H          -1.04328298038882   -1.43978941158978    0.69065118199736
