    19
        -40.92115647
S          -0.67119888651619   -0.79950283541581    0.18227836824806
O           0.53630000751401   -0.55705517367954    1.01001903286862
O          -1.70698727430410    0.16011118297952    0.53826546431304
O          -0.34373252867276   -0.77017795485066   -1.22555249976507
O          -1.16594746026672   -2.22843265914609    0.53769101722089
H          -1.39327901622955   -2.15700414577054    1.49159633644136
O          -0.57877824839806    2.11754634769151   -0.79017832468357
H          -1.12027930240284    1.51424420131783   -0.22731100907788
H          -0.79529773820958    1.86968397316434   -1.69273365156546
O           2.04400687190081   -0.25417033562306   -2.14693988705453
H           1.17204901804176   -0.63775123527403   -1.88701257676129
H           1.97135136087587   -0.00156511142546   -3.06931993343214
O          -1.49335698065798   -1.13502626197261    2.90052417468070
H          -1.85613326081471   -0.43605862973268    2.33384667827822
H          -0.56190595919501   -0.91842066542333    3.01245269690170
O           1.73183184062662    1.25865451141708   -0.11609171045056
H           0.88708476877866    1.76818328298623   -0.39444058409972
H           1.29714715871405    0.45027829675745    0.48746863697804
H           2.04712563992705    0.75646321068215   -0.94456221965591
