    19
        -40.92246919
S          -1.03238847183810   -0.21754545685948   -0.17885521019046
O          -0.66840090542260   -1.34201258840896   -1.00915216887949
O          -0.27325996896200   -0.30914870617995    1.14236131736856
O          -0.84672989310589    1.06831454834494   -0.78025834657446
O          -2.50365615068243   -0.36297298447101    0.26690151919050
H          -2.55858988919551   -1.29025195824231    0.60927327630729
O           0.91472209357365    2.89991402391676    0.09860711975662
H           0.47206944426906    3.51552689153151    0.68518891374274
H           0.21442048297746    2.36770090239714   -0.32460517839196
O           1.69522906047270   -0.24306942866431   -1.71361886410671
H           0.90332132153207   -0.79845899841172   -1.61245876393723
H           1.41767958226626    0.52032535376951   -2.22618586028144
O          -1.85809509488276   -2.79685993944874    0.91562891236684
H          -1.33512667922469   -2.70221025965162    0.10279675985808
H          -1.24146897614631   -2.71171774106900    1.64822543920080
O           1.99734499515393    0.57948890134174    0.78553762401356
H           1.80157931591464    1.53708451807781    0.65168005244893
H           0.75771867084450    0.06347787072721    1.06298288105956
H           2.14363108246587    0.22241505132408   -0.12404940289523
