    19
        -40.91893373
S          -0.26855311221886    1.63847467806902    0.50620567465025
O          -0.30685386657469    0.55273204197705    1.49815016541551
O           1.01689826593275    2.28783373995994    0.46314481831692
O          -0.77616840470497    1.19140098021521   -0.77587044819018
O          -1.30406908237691    2.72273382487634    1.02815681677821
H          -0.78539184041418    3.23919621675980    1.63756837719050
O           1.77130834271130   -2.00257887881252    0.00381925860288
H           2.41392703165382   -1.97223285300395    0.71529425499548
H           1.86584284559019   -1.14445634559116   -0.49071461594164
O           1.84947877412511    0.35895395113672   -1.13460151176527
H           1.12376703209392    0.46146874107161   -1.75763854748071
H           1.74121078110981    1.10954553496512   -0.51588600304316
O          -1.93574815458468   -1.07721279234643   -1.24548025465597
H          -1.53085368277139   -0.17360719469179   -1.18419856026197
H          -2.88407606284168   -0.95284604674994   -1.17698375495930
O          -0.61758456657136   -1.78667772227097    0.80455747905161
H           0.34365852212387   -1.99800360339295    0.48102640798753
H          -0.52482116144362   -0.78774539312237    1.17937955701629
H          -1.19197166117673   -1.66697887853361   -0.03592911376030
