    19
        -40.91339796
S           0.96405461197355   -0.31625517327700    1.10319932435386
O           0.23019095832090   -1.39252675936995    1.89666084233172
O           1.36954990055427   -0.80998374679992   -0.17341567519516
O           0.22969364057979    0.91477957823844    1.11061878185804
O           2.24405086125784   -0.09286848508944    1.98006401276826
H           2.84800270398310   -0.80279760206069    1.77251445508262
O          -1.82845952913321    0.14749541376649   -0.56586243303420
H          -1.27791348570661    0.18217717605128   -1.39017743924639
H          -1.31103796968459    0.63122408952574    0.09280092076884
O           0.08519561342744    0.30830536110224   -2.37786944298639
H           0.66240809780777   -0.28168454857754   -1.87373439185800
H           0.40751377127659    1.20200731768121   -2.16908986315161
O           0.82647801498791    2.57988910114155   -0.98951026158856
H           0.25811509854286    3.35024241094686   -0.92933683801898
H           0.69110877081172    2.07101858006401   -0.17380461789185
O          -1.63465200737797   -2.19318916675120    0.45834553576150
H          -1.79580079298911   -1.33310166416158   -0.05114377205582
H          -0.53869800416319   -1.80347744419851    1.30909412515443
H          -2.42980026450151   -2.36125441823148    0.97064676690836
