    19
        -40.90970431
S           0.89004546048117   -0.24964451209383   -0.92915775172324
O          -0.60157678182039   -0.19701483189460   -0.94655611868885
O           1.37566871377970    0.28237713785624    0.33217481530221
O           1.33135856805282   -1.59987026919121   -1.17899232305220
O           1.36795370137492    0.67925311268039   -2.08297608777088
H           0.89412717771357    1.52480507186541   -1.93713132334103
O           0.26951732074317   -1.34021451302426    2.13276351635707
H           0.93582812314535   -0.82813371468976    1.62074508419231
H          -0.34217316510822   -0.65540075482775    2.44853593904964
O          -0.53267104172020    2.40382008496605   -1.36338897796175
H          -0.83155845445724    1.51081694895405   -1.10263955930514
H          -1.12364529916597    2.69931637000405   -2.05979119442710
O          -0.72626510628686    1.18734259558110    1.79694273092974
H           0.06569606393056    1.07228016933967    1.24280436546173
H          -1.08588648928618    2.04506175646215    1.56825572357570
O          -0.71334746421978   -2.40537195795210    0.11419289237966
H          -0.93936284685726   -1.47880200657908   -0.34790880625064
H           0.12860796841509   -2.58037835427116   -0.39503946757518
H          -0.36231644856612   -2.07024233337508    1.08716653299780
