    19
        -40.92246924
S          -0.58349431080476    0.29984416611209   -0.84634732338558
O          -1.00875360645399   -0.59934887501723    0.31170470054010
O          -0.56528372331600    1.67154686733261   -0.39418645072924
O           0.63993554086616   -0.16677993055729   -1.42523407227789
O          -1.73172666851683    0.10879478576965   -1.86100492135850
H          -2.51732462406667    0.50774157640249   -1.40948347874029
O           2.16678237773120   -2.10644569064961   -0.35911857385212
H           1.94450645855637   -2.94740353999537   -0.76215071411217
H           1.72103582282265   -1.41854121469760   -0.88900459862558
O          -3.21684107645259    1.31984889247497   -0.10349101471328
H          -3.26226761051108    0.72063011443563    0.64690426829734
H          -2.39688112408283    1.82971341445688   -0.00009539389133
O           1.78589964906432    1.37030202395623    0.89818932143020
H           0.96572728771613    1.69691033468037    0.49022056280655
H           2.39814932409608    1.21838497309742    0.17395147417547
O           0.96404732564322   -1.00570271871140    1.73113816024504
H           1.36810024470268   -0.10648390662212    1.66589787189319
H          -0.17997450506954   -0.82193353049708    0.99882397681549
H           1.50836320808221   -1.57107774193572    1.13328622547994
