    19
        -40.91965226
S          -0.96783650006913   -0.58290395729607   -1.04564998416411
O           0.48887837215934   -0.68895464778857   -1.22396697321584
O          -1.27065344375463   -0.33598059063702    0.36723527180336
O          -1.59740273612015    0.33768630243201   -1.93885893212910
O          -1.51729693135564   -2.02933030048936   -1.37185651625056
H          -0.84418326391644   -2.62918282754975   -1.06222502361202
O           0.16862176326078   -1.69946873593645    2.03849767516395
H          -0.51014665918225   -1.27815301142843    1.45174906305121
H          -0.13304739881238   -1.57241505522825    2.93994542768348
O           0.17829352391074    1.78486734200357    1.02711048835579
H          -0.58548641138431    1.17591389949356    0.93986449700089
H           0.24202302364435    2.21019150246878    0.13709525410491
O           0.22582546339859    2.22954957765918   -1.56545098674782
H           0.97631475932213    1.86136653517210   -2.03697892113470
H          -0.53809863039511    1.67129225922306   -1.81277117935459
O           1.76676670746320   -0.10270727788299    0.81957791759317
H           1.35315706393696   -0.78491417885459    1.44071083396696
H           1.35950478181183   -0.37806738824629   -0.10883168642769
H           1.20476653605622    0.81121056282450    1.00480377431969
