    19
        -40.91739549
S          -0.58927781102490    0.59797973541054   -0.96111154499173
O          -0.53317977547032    1.24629300543542    0.32466672104655
O           0.62870654267626   -0.08584872459514   -1.30641698953100
O          -1.79176711871373   -0.32773258040198   -1.05162641413897
O          -0.93910706055122    1.63520462853034   -2.05969828929347
H          -0.19606274276530    2.27538694767140   -2.01689669085030
O          -0.06260764095269   -0.66629578379776    2.20045437394835
H           0.82052651597857   -0.92761984655958    1.86846384478574
H          -0.24511993496540    0.18332107213645    1.76566738974670
O           1.29752052835464    2.67339355481393   -1.17354452830097
H           0.94806576099667    2.58336687302986   -0.27820345191886
H           1.85986469012362    1.90612525911887   -1.32086084274844
O           2.06104409398503   -1.26868547530871    0.64760700564024
H           2.19929832156072   -2.18453533034160    0.39892629222916
H           1.62721823269025   -0.84271054846339   -0.11519432850539
O          -1.70170124667781   -2.04077263500174    0.77446165503420
H          -1.05952587172863   -1.59505057108631    1.41759913513736
H          -2.55282657037768   -2.07431674805696    1.21798226415727
H          -1.77106894314858   -1.08750283265947   -0.33227559144695
