    19
        -40.92175623
S           0.15881464030362    0.06067047684623    1.03880263560615
O          -0.69500744690184    1.04511454502529    0.19078252752011
O           0.65936571017639   -0.97371361988755    0.16264476062441
O           1.16810390465962    0.76834157532574    1.75890610932457
O          -0.88293593907454   -0.50875139976641    1.99425498859655
H          -1.72326799454235   -0.72764010948624    1.44596653272003
O          -2.82280102010671   -0.91576824649872    0.42097991316298
H          -2.37633829626203   -1.46009658513844   -0.27559754618720
H          -2.93009131670891   -0.03845031544640    0.04225860424525
O           2.90416844939418    0.60141924971208   -0.29582296202406
H           2.53880426171447   -0.26051648368838   -0.52606937955136
H           2.62859447421928    0.73622051812956    0.62558679829586
O          -1.22924634190066   -2.16929584035772   -1.26148380548177
H          -1.09219434230075   -3.11701400913130   -1.20764372944822
H          -0.44717800358172   -1.75242885904719   -0.84173471244412
O           1.07499192913813    2.29355921477635   -1.15108325394268
H           1.27853685289896    3.13399452825411   -0.73352360101706
H           1.85657950035846    1.70428400670866   -0.98449744278315
H          -0.06889900148580    1.58007137366756   -0.40272642720101
