    19
        -40.91039652
S          -1.58961318830068    0.39269393299078   -1.02944317734556
O          -2.24978696275765   -0.52741187191676   -0.12543994107147
O          -1.15470245839343    1.60942293144165   -0.31010374703782
O          -0.50869318285219   -0.18215349763599   -1.78895267207203
O          -2.67591691750368    0.88458490187685   -2.05972937000791
H          -3.42403651246736    1.09663284764268   -1.50923145680572
O           0.79488504056853    1.05683639391539    1.06375651553642
H          -0.07129931296541    1.40706738915944    0.49570572780756
H           0.45929415909625    0.18975851866073    1.47233891743363
O           2.32350274991706   -1.49209053899152    1.13856684259964
H           2.44972285160018   -1.25264504000297    0.21565150281724
H           1.42335214046257   -1.82184564222834    1.21938850401961
O          -0.46895058033962   -1.10235577009460    1.65750584390343
H          -0.91215409753325   -1.24025601475748    2.49687825497750
H          -1.18234882272852   -0.98455300616567    0.97651307844340
O           1.94819420265081    0.26898340138027   -1.09121830739153
H           1.05822933813541    0.02414744645918   -1.45384539128999
H           2.32938597702091    0.89716243444552   -1.70705581249061
H           1.45093558637297    0.77602118381574    0.33871468801664
