    19
        -40.92120611
S           0.75247151692353   -0.91389825586304    0.70827332650195
O           0.60848219506372   -1.11502419707160   -0.73400680787817
O           2.09991977630347   -0.61685985364135    1.10966479291356
O          -0.26072203160675   -0.00153919216760    1.21308268079771
O           0.37870336479673   -2.32192832401805    1.36308339270415
H           1.20985676531191   -2.78451720270321    1.41346011462678
O          -0.49278668320385    2.14830334186058   -0.36358988671144
H           0.47397649512004    2.17520461943120   -0.53018335438153
H          -0.56030750320617    1.62572601235946    0.45777756788063
O          -2.50037242689752   -0.92684583966721    0.21919912586739
H          -1.75665792040563   -0.60225235302237    0.77751409930488
H          -2.47877777810892   -1.88392896133385    0.27575527581560
O           2.11114783500882    1.59531980587035   -0.38205853151537
H           2.85779960715061    2.13269762407247   -0.10915485031165
H           2.17096766524351    0.76462844684795    0.12841051350595
O          -1.24748038803467    0.19199297154636   -1.71611827775181
H          -0.40914149215508   -0.38705129016461   -1.44927752406366
H          -1.95671530419465   -0.20975319593251   -1.11291439385844
H          -1.00036367314679    1.12972585365675   -1.26891728352184
