    19
        -40.92079124
S          -0.24046012800261    0.75233734956306    1.25866475942182
O           1.05931182919170    0.08073284703910    1.19950119573526
O          -0.71472196395375    1.09350748960512   -0.07539897518630
O          -1.19699219297363    0.03487567590486    2.06135023669507
O           0.02038322447240    2.14201219263233    1.96975409135230
H           0.20307036623068    1.89701450234345    2.87148594307745
O          -0.69899489755530   -1.20434452969257   -1.42732711438312
H          -0.96624526417510   -0.32924752164323   -1.08014203713201
H          -0.91905571445661   -1.82539933861412   -0.69381578153846
O          -1.24017192952097   -2.33471664849724    0.89169513234121
H          -2.05465427426769   -2.77328286358506    1.14496260913738
H          -1.20257630058111   -1.50498861770785    1.41518345285299
O           1.14101317247749    1.81411480686859   -1.78284261004368
H           0.71494071265054    2.02969182196948   -2.61489376458665
H           0.42396021230312    1.74764343330089   -1.10874372571275
O           1.69381994515972   -0.58893338425912   -1.09739485281043
H           0.74039851344546   -0.99567011004497   -1.34741423129301
H           1.68157690856117    0.33857658454499   -1.50978514477222
H           1.55539780098254   -0.37392369975346   -0.07483918314588
