    19
        -40.92136409
S          -0.90853080378868    0.46753811592595    0.93765036699835
O          -1.85345692778257   -0.41242355791793    1.57919752596731
O           0.47655536273120    0.13999226437295    1.19039907982587
O          -1.16023198166608    0.59963467175872   -0.50828507449292
O          -1.14676666670651    1.92079573157313    1.53126854000273
H          -2.06994194288877    1.92800318619927    1.76779322146215
O           2.08771613730286   -0.19618143174868   -0.84814817398844
H           1.93997481703144    0.70029727398112   -1.22254406563803
H           1.73956724942853   -0.10411011919622    0.06824160551938
O           0.90631893391638    2.16603284063232   -1.20331218718859
H           0.05556441506357    1.72038455049654   -1.03059754355822
H           1.02779331433858    2.79199420198335   -0.48734834820722
O          -0.50152703769021   -2.50311578112352    0.71575854430462
H          -1.13773035060662   -1.85187015103625    1.08950149195201
H           0.26764798767450   -2.46316601399969    1.29096000992346
O           0.01350545851383   -1.37611155368621   -1.51483995907007
H          -0.16384336009842   -2.00264337233294   -0.72435913327650
H          -0.58176895401344   -0.57180906626653   -1.28376380599631
H           1.00915433919182   -0.95324178956062   -1.34757209460998
