    19
        -40.92246926
S           0.75746122758857   -0.21987605198390    0.72408049510106
O          -0.58056001489460   -0.92713480318983    0.52610635855349
O           1.66438101584088   -0.62806071506299   -0.32336620619806
O           0.56812556096941    1.19379334525603    0.84846467064095
O           1.24348238987076   -0.78861804667068    2.07510203923413
H           1.40488969719751   -1.74682063129801    1.88611817720337
O          -1.76667751122231    2.44584122079313    0.39117610346463
H          -2.23702319883419    2.55775657898686    1.21894874867507
H          -0.86539777567026    2.15074264081146    0.62223418588444
O           1.44771132426956   -3.05540559886417    0.81715477365720
H           1.74790389873776   -2.45399425885281    0.11633225377082
H           0.54630500984589   -3.30500651114141    0.59512117077444
O           0.50958295701948    0.98526726814393   -2.15435577277396
H           1.07553165337406    0.36616875823823   -1.66208102347025
H           0.71543710785681    1.85892670856215   -1.81252479112768
O          -1.85774780713313    0.31185103462759   -1.17779357811918
H          -1.20999864731314   -0.43499510370754   -0.23042333974877
H          -2.05968913512310    1.14436657818077   -0.68804372643846
H          -1.10371774237193    0.54519759718535   -1.77225054903548
