    19
        -40.91568345
S          -0.00867379520127   -1.03245872656106    0.24772330048075
O          -0.04621623917102   -1.31086251459407   -1.16389471047903
O           1.28123343455456   -0.82532725058909    0.82023197033807
O          -0.90399655638022    0.20804979546242    0.50252405482986
O          -0.74419161025970   -2.13080314282782    1.03866901579484
H          -1.55316610819945   -2.34985314324522    0.51062333865911
O          -2.53455924161898   -2.22883333500494   -0.84443838644763
H          -1.74230252461695   -1.99872978212575   -1.35964575529455
H          -3.13012281739753   -1.47644406293273   -0.88692235064170
O           1.16851754660622    1.58257331270168    2.14047718622909
H           0.21927015098334    1.72258948251830    2.16549056243066
H           1.29477864756479    0.64170381961847    1.94124785199790
O           2.22778806483598    1.68909824759161   -0.36079288743414
H           2.49865068902493    0.76918356933989   -0.27463415088226
H           1.99299753884778    1.95945815925022    0.54826320982137
O          -0.11870924778265    1.48572378166994   -1.49903931514426
H          -0.00294614858372    0.71418519987220   -2.06527976576539
H          -0.69339821417835    0.85509129522403   -0.28222892808558
H           0.79504645097229    1.72565530462401   -1.17837425040558
