    19
        -40.91493703
S          -0.64303831093422    1.40935374630367   -0.73034495950249
O          -0.05166427367885    1.30687729938296   -2.02884551314004
O          -1.59577158474735    0.24852925913661   -0.51049394413521
O           0.23145140194564    1.55215809365248    0.39122554933360
O          -1.58437513047022    2.67598780882331   -0.74261153914640
H          -1.97172997311089    2.73306841615398   -1.61341837849653
O           1.93456188335672   -0.62410626327432    0.60991919462292
H           1.54482832651029    0.26074678252652    0.64968905916836
H           1.85499731731864   -0.89588396671470   -0.32375662150320
O           0.12255077269609   -2.07411827277287    1.86714775742958
H           0.90811852943862   -1.60382815993845    1.48542923079002
H          -0.13029665350656   -2.73661295095402    1.22174513047166
O           1.35315300108384   -1.00390541041607   -2.02401091659686
H           0.81122764733510   -0.20206825342958   -2.13013123099892
H           2.03618477982559   -0.95952435261266   -2.69635096713950
O          -1.44867094168710   -0.01220583957628    1.93447051265283
H          -1.63946656237147    0.08702128386864    0.55128316062434
H          -0.92100417655445   -0.86356212810815    2.02719323781439
H          -0.81105603240823    0.70207287799945    2.06186124779553
