    19
        -40.92003358
S           0.43935496542191   -0.60640485198988    0.45877657151674
O           0.05067502639180    0.60828182155805    1.12965181787706
O          -0.00669556853675   -0.66074960452486   -0.91325301444766
O           1.95777265115728   -0.79051786473527    0.51220356135830
O          -0.05298720220917   -1.83004250090285    1.23433787477806
H          -1.07392712465830   -1.85458772400822    1.26593799081231
O           1.42478956015579    2.43339768178019   -0.27085482553238
H           1.95483217705703    2.96683091867047    0.32488787717367
H           0.85201188758467    1.87758221588108    0.29206163868618
O          -2.38497885207112    0.44671640152814   -0.30788354375150
H          -1.61341626318846    0.11541789554211   -0.79984140378858
H          -2.02545368623214    1.08992861746431    0.31143326763139
O          -2.59189314948460   -1.77146543230132    1.08998101209705
H          -2.69632095711536   -0.91422926208266    0.59962902995488
H          -2.90509938043286   -2.46379207341948    0.50260861529915
O           2.46071487063909    0.39941583461667   -1.65729852375383
H           1.67595170307572    0.05103951732380   -2.09749772034112
H           2.20265083855187    1.28732399183660   -1.32176561992264
H           2.33201852384210   -0.38414558224830   -0.35311460563727
