    19
        -40.91799432
S           0.09280687976929   -0.14067286259853    0.99778659651192
O          -1.01156725973622    0.48051837073006    0.07660921695693
O           1.17263997758065   -0.55311011185704    0.13910819239298
O           0.42818456893629    0.78562037171497    2.03022669508085
O          -0.61716281249480   -1.35819990323576    1.58258417837830
H          -0.47628752024302   -2.12731876547699    0.91109367293435
O          -2.00999137046139   -1.52316593368949   -1.56837185353194
H          -2.94775137245966   -1.69301095983441   -1.46089661614028
H          -1.80661370045334   -0.72313063750247   -1.05818064798340
O          -0.10526743442275   -2.93162093753527   -0.31423489569925
H          -0.79262473134880   -2.62516588376873   -0.94395755675222
H           0.68887416682421   -2.41335801343851   -0.50707139095942
O           1.48064351085601    3.01313550813563    0.95910851277925
H           2.38002928572597    3.11349546801584    1.27674179391040
H           1.07421881226376    2.31068266056195    1.50138461816541
O           0.66855948853047    1.79244449401565   -1.26264233952558
H          -0.48687522348227    1.10798641685107   -0.54504726806650
H           0.98668645746335    2.43811254801323   -0.59148895269925
H           1.28149829715679    1.04675818089980   -1.22275195575163
