    19
        -40.92011118
S           0.83077402428987   -0.61661637624330    0.32597709147712
O           1.18565986066661    0.75635602347861   -0.04364555066970
O          -0.39730322235331   -0.60612845652227    1.14759467311298
O           0.69151213204367   -1.49024884504962   -0.81083343620314
O           1.96687421080312   -1.17529250519157    1.22524240736115
H           2.17449473115529   -0.43897433321845    1.84021398473210
O          -0.89025625425951    1.90682971158286   -1.14183362264269
H          -0.95635217539196    2.77129840107768   -0.73065650551712
H          -0.03720246202927    1.51401446735820   -0.83028949302356
O          -2.30093859866632   -0.03152210301984   -0.27495069348404
H          -1.51979472799713   -0.30497951338793    0.45396843276143
H          -1.90183357305229    0.80938518002303   -0.69190291148879
O           2.38836557890013    1.21723217784603    2.23906953970760
H           3.28329047912117    1.54005125271195    2.11083462790621
H           1.92250760586803    1.33288056412716    1.38596432228035
O          -1.64626326611553   -1.86904058988634   -1.89738049115614
H          -2.20501295449458   -0.76720871561171   -0.98583686372253
H          -0.69785684671702   -1.77409316045451   -1.62926233128657
H          -1.89066454175922   -2.77394319964273   -1.69227320014053
