    19
        -40.92218955
S          -0.17951085243052   -0.10147642085569   -1.13900414524369
O           0.99471375932308    0.70842075197735   -0.83104116021027
O          -0.11270563387927   -1.39595064039429   -0.46827394840649
O          -1.41680522386516    0.60614368221576   -0.80969426906247
O          -0.21120465726755   -0.34972301328424   -2.67533667874889
H           0.63404501082270   -0.82164892449798   -2.82674931587087
O          -0.99371132945091   -1.36942631365313    1.96998808534227
H          -1.72764990712552   -1.98686594570638    2.00030420440283
H          -0.58855188824239   -1.46800275230471    1.06643529323605
O           0.80442610655245    2.04700555073375    1.38151948910323
H           0.88326678569633    2.97397328607490    1.14609435394539
H           0.99193557994447    1.53488810819399    0.54926317597586
O           2.09669973039673   -1.46374340325795   -2.07797635130880
H           2.30180458054787   -0.62117600837279   -1.65169700317655
H           1.59188722441779   -1.95748602811859   -1.41815738438198
O          -1.51355287777433    1.07455555456254    1.61213897713641
H          -1.60478037477263    0.94154479938124    0.56150330633123
H          -1.35525589666966    0.10226897860707    1.92978746798611
H          -0.59505014673189    1.54669873725852    1.68089588294594
