    19
        -40.91893407
S          -0.55267801502746   -0.82646850862087   -1.42595103398540
O          -1.45907967615516   -0.64824915587190   -0.30874342557883
O          -0.63892007653271    0.18288665314897   -2.45073327956875
O           0.82809130438233   -1.02514923752996   -0.95966217444592
O          -0.96947612086689   -2.19696083313577   -2.10975316574794
H          -0.65632516490973   -2.09436837453149   -3.00338232188547
O          -0.86207750498595   -0.93299235831227    2.19567699213158
H          -1.09909174576817   -1.82229849443655    2.46492946891683
H          -1.21264538320786   -0.81790624329464    1.27458689363415
O           1.52115974970666    2.01800966804646    0.87629032893695
H           0.67068170983253    2.10820731437864    0.36776824913073
H           2.22055521723370    2.27999486338564    0.27434528394032
O          -0.68079431419299    2.00992444967918   -0.54763052972685
H          -0.61973586614532    1.48839726700188   -1.37379521027294
H          -1.40529564003459    1.60169488805355   -0.06421593084294
O           1.48326513365870   -0.46643450648438    1.34485450987264
H           0.60738900707026   -0.64843728906449    1.84537920483637
H           1.25791135427564   -0.77234222431473    0.34402327544386
H           1.56706605167004    0.56249212190099    1.25601286520808
