    19
        -40.92453808
S           0.09987213070452   -0.92019126886788    1.21090667840578
O          -1.06989078568092   -1.32929139884858    0.44093119132008
O           1.33614112295540   -1.09381397556096    0.47768431487846
O          -0.06317260930715    0.43743519437031    1.71771974882188
O           0.18418896595310   -1.87819531338878    2.46387337682328
H          -0.64309014927058   -1.75842068766007    2.92101242519314
O           0.34999254950413   -1.22046274492643   -1.92186263872890
H          -0.49147839570716   -1.63169998679552   -1.69113904486505
H           0.88171446986785   -1.30153446884646   -1.09244679670372
O          -1.96144616564780    1.02318240446802   -0.18285228606551
H          -1.80082756027794    0.06796072324354    0.02663689113837
H          -1.69838676405251    1.47928318216706    0.62520169794940
O          -0.01587756907492    1.26882513798430   -1.76448212089397
H           0.14876984525461    0.25894688785851   -1.98321780095094
H          -0.90054353311033    1.27167356600457   -1.20729250214132
O           1.62352958274911    1.60487457230843    0.12008827689561
H           1.02375315250071    1.30945212041618    0.84997525249413
H           2.27133071659474    0.89336118400620    0.05761302144814
H           0.72542101605319    1.51861486216672   -1.06834966507512
