    19
        -40.91271948
S          -0.10818846443564    0.47498917708373   -0.23191928917353
O           0.12887715586314    1.89514767215069    0.31780507829596
O           0.06404243339980   -0.48867861292950    0.83098070976781
O          -1.35462954340201    0.41604124182543   -0.92267260285315
O           1.05234561866371    0.29278118274542   -1.23091593739235
H           1.84947846052137   -0.01947254489647   -0.66993021026201
O           2.69894733843602   -0.84052718699506    0.31896356601246
H           2.71816766877565   -1.65833883072634   -0.20870131312544
H           1.95423402354570   -0.93248904628896    0.93361057001489
O          -2.43123028321638   -0.06095623917320    1.77880334336544
H          -1.50690645080614   -0.32508497227058    1.63104221442998
H          -2.94338263425650   -0.54641238864057    1.12737162993692
O           2.05338834736826   -2.44366321537774   -1.81169020048179
H           2.59106728281110   -2.60358789933501   -2.59011708940735
H           1.43115337754801   -1.74379060292305   -2.03686454645913
O          -2.29726946569833    2.43699483170674    0.84528242082222
H          -0.77830577658391    2.26804726429684    0.58526626985387
H          -2.65291225897540    2.26187387021693   -0.03179040547706
H          -2.46887683954985    1.61712628952477    1.36547578213146
