    19
        -40.91624672
S          -0.22429427532762    0.89000401553417    0.02205622289016
O           0.53032160059156    0.83048389917785   -1.20534507097879
O          -1.11836532870045   -0.36126539239414    0.10712538449425
O           0.54192740545403    1.02415863625884    1.21956978475645
O          -1.24272788091011    2.04593124843055   -0.04715131957774
H          -1.53417942657841    2.11370323724042   -0.99409204170765
O          -0.18716720541091   -1.10303545747035    2.82255829714260
H          -1.00700190522057   -1.36157325990891    2.39515367377102
H          -0.00065937952388   -0.20207369881203    2.51733782252698
O           1.97146351090868   -1.46932854916505    1.20116727498416
H           2.04150624267319   -0.50852377488354    1.16727180047662
H           1.35484240406565   -1.63851058975897    1.93885353985528
O          -1.38341518095910    1.96484827460239   -2.63405319118476
H          -1.13211389378225    2.75998646840087   -3.11060752347722
H          -0.56432388309108    1.46608494707603   -2.45523412078771
O           0.50328926157632   -1.97315772584986   -0.90640755242056
H          -0.57052696776174   -1.13326656604870   -0.32343310616205
H           0.87129578587215   -1.37571776959747   -1.56639999012034
H           1.15012910619307   -1.96874794271115   -0.14836987457519
