    19
        -40.91955061
S          -0.79453619551534   -0.04190118829375    0.85424012329828
O          -1.46190172359955    0.31139081919267   -0.48797306249271
O          -0.01128373566401   -1.24242785554057    0.67346396199226
O          -0.08979006978914    1.07806309582395    1.38314302141980
O          -2.01601934131424   -0.36401404103807    1.73824113438898
H          -2.40070123384540   -1.17499916771511    1.31925129024896
O           2.60545644153496   -0.81612038146088    0.07831037797485
H           1.68096000296051   -1.06611482822974    0.25420549257431
H           3.11660153008302   -1.12841025420649    0.82703907792598
O          -2.38181649108781   -2.39679774530835    0.16454140027540
H          -1.41116268446494   -2.38948957295173    0.19550534370885
H          -2.63099380033307   -2.03312396077113   -0.68968412941174
O           2.00751045010538    1.80611836779917   -0.20606080424147
H           1.40489570982838    1.77690483360468    0.55398382421439
H           2.43800733615039    0.92795177419760   -0.21442556138502
O           0.09718436626255    1.64201075441965   -1.92820427839151
H           0.92449932364499    1.73073333788633   -1.35496842255469
H          -0.82932522906130    0.84913338637429   -1.12028564072867
H          -0.24758467591294    2.53109260619115   -2.04032315878410
