    19
        -40.92174066
S           0.82016905301345   -0.36089623182933   -0.01397438748650
O          -0.29709833806223   -1.10469384667914    0.69435575065807
O           0.63378154438707   -0.42914914542605   -1.44793124136518
O           0.95134633260060    0.96786376611538    0.50780767422929
O           2.08186254356918   -1.16958678932364    0.35816531935582
H           2.07458644177574   -1.96695734023722   -0.23198589437099
O           1.72835203187204   -2.83566360554769   -1.60122540197692
H           1.15708874552469   -2.08919961946067   -1.86039536463671
H           2.42483280156046   -2.89653983606557   -2.25993752318389
O          -1.24119506549580    1.52225510640074   -1.39013055709950
H          -0.60421977240944    0.83371857497267   -1.64278689764474
H          -0.71729084562123    2.24967341833516   -1.04442048770315
O          -0.80617155853802    2.01016939277258    2.25962216641226
H          -0.51674625749126    1.81151509395264    3.15163291556531
H          -0.06821155469940    1.76752805292805    1.66876344263427
O          -2.27665482332978    0.37169175042411    0.76806190782336
H          -2.15607868284409    0.82252993877122   -0.10086521923166
H          -1.21883282585288   -0.52965117016179    0.74729544255884
H          -1.96951975996130    1.02539250007650    1.43794835550858
