    19
        -40.92218957
S          -0.05356987745892   -1.08700246796907   -0.39458773679514
O          -0.09342205159337   -0.10211090920678   -1.47075551196798
O           1.09804105829010   -0.86596118637173    0.47431796729406
O          -1.30238944557386   -1.09554335783957    0.36716174112435
O           0.08147836894910   -2.50059649390314   -1.03236117478051
H           0.92731046579803   -2.42749457961572   -1.52151062450742
O           0.69225576176336    0.88894561267189    2.33931756480245
H           0.95947971916154    0.24405778199996    1.63012246272894
H           0.82045362599775    0.43341750286545    3.17419553370625
O           2.28227865147773   -1.37720653366452   -1.93701515385963
H           1.69866983587237   -0.67439549689703   -2.25205306278369
H           2.45173114590011   -1.16020162297853   -1.01061671612171
O          -1.23935104115235    2.13003935225988   -0.81763375899055
H          -0.73860516306859    1.33470528206736   -1.14485887642312
H          -1.98590128004429    2.23609766185896   -1.41119560366244
O          -1.65939877856947    1.09606181051155    1.44624316381242
H          -1.63545810660401    0.11227140303242    1.04518922865225
H          -0.74332841107594    1.14506721091930    1.92574843599918
H          -1.56027448842211    1.66984902017132    0.59029213136441
