    19
        -40.90566338
S          -0.27612778290068    0.50927584399331   -1.68427399659241
O           0.31137015865236    1.72409276758153   -1.15329850596388
O           0.67627959382500   -0.46650120286730   -2.13853027538653
O          -1.24054025008418   -0.07574733710397   -0.73058605320229
O          -1.17806753695031    0.95391965594546   -2.91385440938515
H          -0.65844292604634    1.64516758005506   -3.31186192103863
O          -1.78903153243349   -2.17719992678693    0.96171478520765
H          -2.69739050513370   -2.48075725841015    0.91647347929814
H          -1.59305639880627   -1.75967204668378    0.10501704144937
O           1.50555199962728    0.07041917310027    2.07166816955237
H           1.85643241811285    0.81326955910058    2.56753035120845
H           1.92605439270345    0.12805835286777    1.15528441946279
O           2.41726121294908    0.43321827259536   -0.30717147196577
H           2.19687352853840   -0.26166498718073   -0.94543621631557
H           1.80384469299091    1.14936010574531   -0.57370284036419
O          -0.96701873523234    0.16566102610616    1.69004003955444
H          -1.07426344288121    0.25999076882659    0.62317211027567
H          -1.29298486062657   -0.77516120636031    1.78304747522640
H           0.07325598366993    0.14427086947294    1.88476781897844
