    19
        -40.91039656
S           0.45126795510500    0.88942261683632   -1.65919601578333
O          -0.47407226708471   -0.05024736702242   -2.25988793047619
O          -0.26493144761530    1.83242458058562   -0.77337657140942
O           1.57091503394596    0.28273255871367   -0.98540093948110
O           1.03167794909708    1.77492351986269   -2.82634505476961
H           0.25773979130181    2.02200181209980   -3.32407854356558
O          -0.91020722492480    0.65423682188232    1.27360978863321
H          -0.67759633708205    1.26986534446000    0.40106902376269
H          -1.28187876388046   -0.19424110577750    0.85698037967053
O          -0.18833497676175   -2.11254592529962    2.10894489086303
H          -0.49319583024242   -2.26542079668786    1.20934325206126
H           0.68833556860585   -1.72249102493370    2.04226626939400
O          -1.55959728415716   -1.29449209767152   -0.27222417462330
H          -2.46553301124276   -1.50720976644917   -0.50481635512798
H          -1.14087531880791   -0.91020762799845   -1.08711344904441
O           1.57340693089906    0.09150050754792    1.60084767190785
H           2.18826302150425    0.73698624156451    1.95370427117721
H           0.00782254458937    0.39858007783644    1.63001266548417
H           1.68679364673959    0.10418161043225    0.61566080132481
