    19
        -40.92174060
S           0.35819036663829   -0.73656382026977   -0.36293701737792
O           1.12969787539896    0.18552478772069   -1.16950870362399
O           0.59169582375460   -0.46334121125602    1.11138974496207
O          -1.04484908174922   -0.75536111333014   -0.65669455732724
O           0.92769874796198   -2.15838895713144   -0.55922069288659
H           1.91219291141045   -2.04965648260096   -0.61662372796394
O          -0.66713452690818    2.17255884369109   -0.78452133174658
H           0.08184320314592    1.61773422427898   -1.05824763683702
H          -1.44523698805737    1.78133668012092   -1.19042297780506
O          -2.91215991575342   -0.05276428983892    1.15003307606281
H          -3.18322443878226   -0.82941120935097    1.64216967275314
H          -2.36939859663100   -0.37262770105704    0.40455352853576
O           3.33354014443424   -1.26579523742810   -0.95335215053316
H           2.79302122473484   -0.46417329979669   -1.08019178974404
H           3.74325203974943   -1.46327191846778   -1.79943912268251
O          -0.81405808502126    1.45875136515286    1.76937729716423
H          -0.75813448468793    1.97473553072329    0.93070598384815
H          -1.70119709789442    1.03113342929714    1.74555484089349
H           0.02426087831708    0.38958037953823    1.47737556429835
