    19
        -40.91898060
S          -0.90814321795304   -0.83270984295225   -1.06964474843201
O          -0.14692056044471   -1.35195558638062   -2.17531073491790
O          -0.51097167338975   -1.43289441867401    0.21598868723684
O          -0.89853571672905    0.61793797456269   -0.96791845660648
O          -2.41822693662506   -1.25449335816052   -1.28862730217892
H          -2.38231890180984   -2.08754007649529   -1.75121129566497
O          -1.53517407757149    0.79882749443982    1.59177753800142
H          -1.44752457095928    0.87102910386478    0.61864857682792
H          -1.62880804727575   -0.14471711567980    1.75502447284913
O           1.67110911281927    0.51881880748517   -1.61677936010000
H           1.42673530277044   -0.24910310876521   -2.16107720617639
H           0.81195264130788    0.96321786487564   -1.49149075167521
O           0.94301703502287    1.40929289775509    2.13359606948746
H           1.09586744912649    2.27481211675580    1.74885849279557
H          -0.03955749970100    1.23819764252255    2.06348442933092
O           1.73832272013872   -0.51026851778718    0.69978663560506
H           0.82085949057425   -1.01786096068201    0.56886026380656
H           1.89572997535507   -0.08175561149913   -0.22885328051429
H           1.51258747534875    0.27116472480961    1.35488797032052
