    19
        -40.92267747
S          -0.14834733793859   -0.80054321492071   -0.68762108988501
O           1.27500484325279   -1.09614917794323   -0.61549983783412
O          -0.71148554257884   -0.71102483033039    0.68265193348788
O          -0.43785010739326    0.40191254161268   -1.43521131611149
O          -0.87631840738463   -1.98734052936078   -1.37779413990433
H          -0.60253453679222   -2.75976956446360   -0.83482104691211
O          -1.49468529600804    2.52852575241002   -0.35514953910336
H          -2.44925737923372    2.43555446163329   -0.34403292974797
H          -1.15011114701854    1.79530169159787   -0.92262988902083
O           1.98457882858160    1.33094663730067    0.07253717878508
H           1.84586809874154    1.82612615509741   -0.73952315905070
H           1.89418010960141    0.38152972316260   -0.18184098869015
O           0.32429222681826   -3.34841891708996    0.51609083726012
H          -0.11309831277727   -2.88616046697253    1.23831197106126
H           1.04617776305140   -2.76440129822816    0.23360075700013
O          -0.10011990066722    1.51728268597067    1.51171406414667
H          -0.70440361793847    2.07823401203937    0.90256696221279
H          -0.40996555708767    0.50370131949079    1.27223655486376
H           0.82807525759251    1.55469302939057    1.06441372014037
