    19
        -40.91833710
S          -0.08771840719737    0.93432928898004    0.35132700018459
O          -0.36508735572758    2.12408072442270   -0.38766995112513
O          -1.20874610019670    0.08785730854676    0.65585440225302
O           0.93827686533170    0.06207476165685   -0.45386741260974
O           0.69505906352926    1.26482964137877    1.61961342462007
H           0.51419740374361    0.49460799388542    2.28024950895616
O           1.83029213894817   -1.95310122273177    1.23468069108347
H           1.64407745694111   -1.30586357499315    0.53566564570378
H           2.77613851295591   -1.93090654656008    1.39158008155965
O           0.06206462118495   -0.80983890179012    2.89691956791438
H           0.68924961694521   -1.43276727088888    2.47161058851068
H          -0.75448695836641   -0.85468970760235    2.37880393274495
O          -1.46741089397961    1.58307087856910   -2.77141023083656
H          -1.00314029885078    2.09154331904242   -3.43930543062347
H          -1.17793678315388    1.93443047715750   -1.90703927333533
O          -0.83652667722443   -0.86417390507145   -1.97676665861100
H           0.35227319462637   -0.38978818301747   -1.16837343629335
H          -1.46773689301464   -0.98262742609536   -1.25681152999589
H          -1.13283849647002   -0.05306765486663   -2.45506091009441
