    19
        -40.92267739
S          -0.79934540324320   -0.27087773786864   -0.65089077219707
O          -0.65695379983563    1.15968977240153   -0.79813687655203
O           0.53223476277844   -0.92349687629233   -0.58485390374354
O          -1.58911334101311   -0.64707357460539    0.51224615942240
O          -1.48846449617974   -0.82315807532060   -1.92951850922289
H          -1.57785050374338   -1.78256207035627   -1.73476451786882
O          -0.32320866149360    0.93251613154649    2.17709284762875
H          -0.90027973347017    0.29440389786505    1.69344452422424
H          -0.62719704872470    1.80405470188776    1.90894351923422
O          -1.31220392965363   -3.08173976483815   -0.60739243304621
H          -1.61354285186824   -2.48820107934686    0.09899157202342
H          -0.35078664650271   -3.07148715449146   -0.55966911497524
O           1.63591396718465    2.39013711651431   -0.60884457382967
H           0.71122521975766    2.07599115710627   -0.76532051018398
H           2.07577273436150    2.36994881214515   -1.46100616007135
O           1.85942521405593    0.42147422017526    0.98156807964996
H           1.96620425618832    1.26447132303134    0.40849343315580
H           1.08624798888923    0.64087211708288    1.62681488857956
H           1.37192227248951   -0.26496290673841    0.29280233777646
