    19
        -40.92246926
S           1.05723270142201    0.10610429800094   -0.13244865494573
O           1.27582048098449   -0.14424137282926    1.27321767391041
O           0.14810390212704   -0.98314484979381   -0.69544219597572
O           0.54372273915318    1.40509552197737   -0.44660875111225
O           2.37463823452738   -0.12057868626671   -0.90576297867216
H           2.68852269691823   -1.00401207328202   -0.58785855129816
O          -1.88127028589975    1.84405298858794   -1.52112257365103
H          -0.97271375390867    1.85937549571875   -1.16452656629464
H          -1.80100846921278    1.91445019900911   -2.47379180519684
O           2.51943324050382   -2.36455291957954    0.40013325840629
H           1.78605925211704   -2.89475689640205    0.07585636143651
H           2.15968444242381   -1.79428708652462    1.09894300501462
O          -1.14983675415101    0.81401964847411    1.97144961370915
H          -0.24588965480699    0.45619624213326    1.94537104053629
H          -1.07094559533615    1.74511935300485    1.74939158342604
O          -2.18122115755767   -0.40013994412653   -0.14376400831219
H          -2.02066352483019   -0.03116478131167    0.75868490270075
H          -2.31450175963400    0.39014406408464   -0.71938059014791
H          -0.91516672484049   -0.79767919089276   -0.48234077357471
