    19
        -40.91893388
S           0.54749996599960   -1.31895782678038   -0.99149957800359
O           1.22721482793160   -0.01621091751008   -1.05900308129993
O           1.21981619300668   -2.23613575683476   -0.10671063110932
O          -0.87160436614604   -1.15410430881668   -0.74569287725551
O           0.66669319797429   -1.93354192834764   -2.45054615697766
H           1.50993053733408   -2.37586769403605   -2.42964011151125
O          -2.16857048265723    1.08767477148228   -0.74533282573757
H          -1.78622917484828    0.17210795008604   -0.74111666332259
H          -2.55631000857218    1.21377503801357   -1.61328405359075
O           0.57152520406654    1.45992360802429    2.17008040054947
H           0.31233644788033    0.49964000593177    2.16422295690284
H           1.50188185204531    1.48314605273803    2.40256755085694
O          -0.03746628036166   -1.07827568692876    1.90443930529570
H           0.55208803291542   -1.57852460012863    1.30429176701469
H          -0.91181414845383   -1.18427903036065    1.51792292024574
O           0.13431213095572    2.03492460006496   -0.25331729103850
H          -0.85132958413317    1.81294764057566   -0.42642049327553
H           0.29107858161578    1.92076187013747    0.76424179016365
H           0.64894708360409    1.19099621222405   -0.66520292804620
