    19
        -40.91893404
S          -0.15572101958478    1.45045002060678   -0.93848797524320
O          -1.36769318690464    0.71035109348885   -0.55484528243633
O           0.13154822172553    2.52999939180225   -0.02823168875965
O           0.94928229524759    0.54600810750733   -1.18858288730742
O          -0.49459399356233    2.11984231835936   -2.33716905414113
H          -0.92138537325510    2.93357319787662   -2.08660266947371
O           1.35006383884555    0.80017379649281    1.54803877479506
H           1.90886755451613    0.44527393305442    0.85005902447753
H           0.89997383588440    1.56208233756140    1.12939975623481
O           0.80128488023229   -2.03898908301685   -1.28670154060664
H           0.68013030655536   -2.30129983339764   -2.20105180188100
H           0.97746577781040   -1.06276496825490   -1.29803051511838
O          -0.29597494873260   -1.03236618612616    2.44474308292430
H          -0.92119275860076   -0.56967387569844    3.00611222347798
H           0.38790710847990   -0.35953628231087    2.17974695257057
O          -1.23420179768499   -1.63521682778208    0.17518407686251
H          -0.44071114920994   -1.96629857848040   -0.38280597322008
H          -0.88362061911975   -1.49993508989003    1.14059689973588
H          -1.37142898259710   -0.63167349182149   -0.17137139284553
