    19
        -40.91398587
S          -0.10766347312638    0.25443658736095   -1.63344225172356
O           0.78268235917288    1.12563406993362   -0.85705771094931
O           0.54836504891935   -0.85652699366073   -2.24826885240262
O          -1.27843288100135   -0.09629760381236   -0.81704530237121
O          -0.69411636386734    1.16223626973465   -2.79719774710449
H          -0.14957064602386    0.99836859761634   -3.56225061843144
O          -0.10233674434024    0.42358993180242    2.71078452134129
H           0.68322139349083    0.02669196821691    2.21121801782657
H          -0.66715413595021   -0.31275580253169    2.95700465915661
O          -0.01727700999005   -2.37123594033469   -0.02104494190086
H          -0.71029656852845   -1.72795494176098   -0.23494442420811
H           0.42056946150948   -2.52782425971549   -0.86505755630950
O           1.63689856407116   -0.57899069111527    1.10673343471575
H           1.17465294832712   -1.38457029843628    0.78868595399379
H           1.62202340292315    0.04083333399643    0.35960450416572
O          -0.97010914059839    1.74801288042112    0.78558873201754
H          -1.39474165950692    1.00323632349343    0.20478642228984
H          -0.65745848177420    1.25867565202606    1.69092464228822
H          -0.11925607372884    1.81444091670849    0.22097851749185
