    19
        -40.92136378
S          -0.15178230421992   -0.34620084498905   -1.33314652806973
O          -0.53370642738959    0.98844306916356   -0.83874972650023
O           0.95110903247244   -0.29093577542393   -2.26015038161527
O           0.03878616471638   -1.26683666551711   -0.23514737668676
O          -1.41692024014689   -0.86227810268872   -2.14236932417855
H          -1.26460071648737   -0.55942483350993   -3.03307877704623
O          -2.45958800140157    0.29971993841942    0.89996842681177
H          -2.93407811030641   -0.43289012555724    0.50336033899033
H          -1.88330708483756    0.65865930342170    0.19912871507371
O          -0.24592219795618   -0.38572438916010    2.21535579028945
H          -0.10777878312052   -0.97760206869997    1.44069083850263
H          -1.17268817819006   -0.08404936594071    2.08920163223446
O           2.63880019235619   -0.07879475530867   -0.24697895339500
H           2.16172679220221   -0.11745087175745   -1.10680280147158
H           2.61733070495696   -0.97721820658591    0.09423919639418
O           1.03484322144869    1.40224876238192    1.07500292556126
H           1.82325780974044    0.89781908800218    0.66019366035134
H           0.37599482379626    1.44652036878397    0.28849100460635
H           0.52852332234199    0.68599547500442    1.73079136015992
