    19
        -40.91799438
S          -0.50741122444813    0.83553023711221   -0.26460716963927
O          -0.91101220739198   -0.66261646998635   -0.04838819368048
O           0.91062223350140    0.92619353305438   -0.03109191383312
O          -0.96378065877161    1.27203930759786   -1.54425763891653
O          -1.27646113607460    1.54400946766002    0.84689544705118
H          -0.67363061334916    1.51520193018788    1.68230504114554
O           0.26295279222902   -0.13428314227794   -3.47666708658840
H          -0.30494000603111    0.42221330314214   -2.91054807771047
H           0.78332242324595    0.46784181970362   -4.01207824489402
O          -0.48491428643878   -1.30224580095093    2.62114249342563
H          -1.27206862330845   -1.58078981525060    3.09292345122361
H          -0.72336034130699   -1.24281722240510    1.68225985878835
O           0.44624513278427    1.21108145070820    2.65178479141111
H           1.13109140276809    1.17997828986031    1.96881634460369
H           0.23923218823338    0.27831415434268    2.87522547546276
O           1.06902999525495   -1.51489965332833   -1.34842345169922
H           1.62153852911798   -0.82454304110203   -0.95925154667743
H          -0.19702963294118   -1.18625112958182   -0.56976826283806
H           0.85057403293385   -1.20395721850972   -2.25627133662010
