    19
        -40.92071401
S           1.11105654645549   -0.53955553514267   -0.82026903205205
O           0.45348045783570    0.76547856028918   -1.03180216575037
O           2.44799992288429   -0.38295639061226   -0.29543532518513
O           0.26761541737330   -1.41086821511049   -0.03521825230446
O           1.25482473264044   -1.18244542689532   -2.25631225002125
H           2.08264407507492   -0.83866397261819   -2.57993645750810
O          -0.31052736005680    1.30644967939769    1.30455088223147
H           0.02149957491263    1.27976597408056    0.33372963578191
H          -1.14882280129453    0.59801184624667    1.25521659010726
O          -2.17274826344589    0.59500989987337   -1.54994693162046
H          -2.47264873208237    1.41778968981134   -1.93915546214058
H          -1.19606984477079    0.63694004018760   -1.52467960928044
O          -1.99834298442792   -0.45627952577310    0.89175578808529
H          -2.39387790192078   -0.13520994657454    0.05383127932383
H          -1.28784577764481   -1.06898967762530    0.59180127107152
O           1.58295233393837   -0.15247847982346    2.16428140080748
H           0.43859458754798    0.81484973685079    1.81285252732185
H           1.23032887985180   -1.03616229369666    2.30470244838072
H           2.08988712725042   -0.21068594284456    1.32003366278736
