    19
        -40.92021779
S          -0.27155095691873   -0.45082571770388   -0.91704609035870
O           0.82026422145167   -1.16054363515217   -0.27381184871780
O          -1.35093900303348   -0.15778828568674    0.10861171926921
O           0.10853636779558    0.73605880330851   -1.61542520471801
O          -0.96533104876383   -1.41607549628982   -1.90333249093731
H          -0.97444379157572   -2.29719242882649   -1.45313096301933
O           1.73398598446324    0.36658969357247    1.73927510344004
H           1.54610049503259   -0.19788162646612    0.96526799331758
H           1.94808934904644   -0.22346036454031    2.46451777468652
O          -0.11605498474402    3.19689719013735   -0.56041478256206
H          -0.83437658656300    3.62472843552769   -1.03022148458917
H           0.09674755960649    2.38782762042075   -1.06327798501901
O          -0.38515131172991   -3.49955621942122   -0.45544781111535
H           0.14642984789910   -4.16716582737769   -0.89596398691694
H           0.22880432971895   -2.80998826050154   -0.13851805738902
O          -0.56889240989919    1.67857790207525    1.55700054430393
H           0.32572641210773    1.33565326185066    1.78690991681252
H          -0.41537484044176    2.39995798853502    0.89809916717716
H          -1.07256964345566    0.65418695654708    0.78690847632459
