    19
        -40.92025490
S          -0.23130144743641    0.00031304810306    0.87971384542173
O          -0.11914229705338    1.44674847660869    0.70257349161113
O          -0.88121831355338   -0.61686614030406   -0.26614961649924
O           1.07147580004417   -0.62504859512284    1.12766580463078
O          -1.08089227792729   -0.26802835062031    2.15412626957638
H          -1.75055871742113    0.45249161390846    2.18484828772579
O          -2.37542455810400    2.00545128810397    1.92037461428014
H          -2.25232888145869    2.62860650937409    2.64026590311236
H          -1.59115338269628    2.08827916226046    1.34132855704962
O           0.82369156664659    1.19716192782543   -1.73422475972138
H           0.04124507816096    0.84301434873096   -2.16826840423974
H           0.51605340189653    1.46782157919938   -0.83777008885277
O           0.34353089832417   -2.43441172681295   -1.65019447689757
H           0.30150651584912   -3.26443417136751   -1.17142697747137
H          -0.26498963843481   -1.80890234146535   -1.17490191918826
O           2.19810382211323   -0.82224304585341   -1.04827577467719
H           1.80082044948206    0.04162409816314   -1.44957654125753
H           1.85015325277863   -0.75539873010020   -0.03307345860203
H           1.60042871879036   -1.57617894062864   -1.41703476600170
