    19
        -40.91250065
S          -0.96671792593917   -0.03406116727702    0.40704914585228
O          -0.45578464607565    0.35613463567170    1.69052332656088
O          -0.85425833453333    0.97398624519142   -0.60857478525903
O          -0.28365319243864   -1.33243381867590   -0.04454068806793
O          -2.44594661669556   -0.50150181839907    0.52542225335521
H          -2.93338583225590    0.29506939027490    0.82447236246356
O           1.88627260162318    0.80848828193840   -0.93882027303187
H           1.89310328708578    0.17913080755671   -1.68264047464708
H           0.97214734727451    1.12880427332206   -0.89761770149340
O           1.33391493434799   -1.44649023517689   -2.40231115088169
H           1.88850684256012   -2.21158028315076   -2.23580937828247
H           0.55132221765257   -1.54394856686461   -1.84547861544817
O          -2.67669502218010    2.00346952103201    1.27787287291611
H          -2.27400834168685    2.35099832728173    0.47465584606109
H          -1.95538518641559    1.87793146633407    1.90570766878602
O           1.92453400639385   -0.91811756084501    1.01395182688573
H           1.58360669193927   -0.44504036965128    1.78295991873916
H           0.67278260680432   -1.32516231450894    0.41884787223693
H           2.13964454257880   -0.21567683405342    0.33432996329937
