    19
        -40.92159002
S          -0.42416332517632    1.39549908686631   -0.22614106623847
O          -0.03199292323622    2.40305873589228    0.72129970957662
O           0.71930444082465    0.85182840148799   -0.97057883002353
O          -1.23843043002661    0.31922918169355    0.31822858082615
O          -1.34873396311088    2.10485976149178   -1.30014048845184
H          -0.97678122360655    2.97708320540719   -1.38851574655325
O           0.43700868311552   -1.34810851499248    1.55509166522728
H          -0.36564120942615   -0.81531403362208    1.38912633968220
H           1.11194408696148   -0.67221057675730    1.80252122836071
O          -1.72863520178859   -1.66145752395741   -1.32272921538697
H          -1.73593039205638   -0.83888837745758   -0.77867669109021
H          -2.32641915316503   -2.27856611316924   -0.89598899237356
O           1.91142596463286    0.84101776139811    1.65617231684648
H           2.53488146164391    0.90389731504431    0.92881494790345
H           1.23026000636736    1.51697506388760    1.47172870902889
O           0.79238526874381   -1.62324248215085   -0.89402029472593
H           0.73719086820444   -1.66559224787199    0.17552587917606
H          -0.15235280352608   -1.82974186478241   -1.20344289591131
H           0.85467983603746   -0.58032675795592   -1.03827513525473
