    19
        -40.92218954
S          -0.44140765123800    0.85854002425420    0.63893707811180
O          -1.21992908839023    0.60399399228393   -0.56889802404069
O          -0.25527729628816   -0.36684981432296    1.40936769330027
O           0.83992945706452    1.49029948489546    0.32423514985945
O          -1.22671976197681    1.87360068498490    1.51999052985491
H          -2.06357804349759    1.39448743936775    1.69346387676983
O           0.18834631458635   -0.22768473091741   -2.58085074243680
H           0.07212173910958    0.41873223465211   -3.28054355508027
H          -0.44093555476839    0.03475727887118   -1.85613840585460
O          -2.97653718346967   -0.08893059788928    1.40998156847788
H          -2.85983857811953   -0.02785152594630    0.45264955458290
H          -2.24724915856786   -0.64651819542952    1.71189089076124
O           1.75318137729189   -1.80819801993266    0.62813952262618
H           2.34673749400366   -1.87750782712328    1.37900814553652
H           0.93485137391708   -1.35325655786871    0.96521710513439
O           2.20759535232493   -0.00853532032767   -1.08210818946426
H           1.73350706897634    0.73249988594021   -0.48574522374043
H           2.15827397123245   -0.83518908257149   -0.46069026084470
H           1.49692816778677   -0.16638935290551   -1.81790674356042
