    19
        -40.91965220
S          -0.61748214780825   -0.10184445702402    1.40670713766907
O          -1.22604388374106   -0.79993525114563    0.26317269150957
O           0.78039006513999    0.21404544142378    1.09877805826833
O          -1.37193293990655    1.01867782064830    1.87235063630636
O          -0.58566076811376   -1.18051967058503    2.56269268467375
H          -0.43503549447461   -2.01347214658041    2.12392265779428
O           0.70458828105942    1.52450497630582   -1.20637646352110
H          -0.20467000384823    1.90573649849165   -1.13625249017483
H           0.93132758822954    1.29112202701922   -0.28136784458758
O           2.07035100832930   -1.66366838744115   -0.13977541426722
H           2.99934688937737   -1.44394285903553   -0.23185811871409
H           1.67829273770898   -0.98440983569412    0.46629248939154
O          -1.80858435988151    1.96891482667810   -0.56684872604946
H          -1.73906527819279    1.78709809117135    0.39146437281354
H          -2.44048054176113    1.33014566186951   -0.90408745537375
O           0.23622670329534   -0.84766692625920   -1.73955532529023
H          -0.48068369222214   -0.90602777191674   -0.97324969328939
H           0.47834496541033    0.21192528770614   -1.68682783886544
H           1.03077088138837   -1.31068332563812   -1.31918133830857
