    19
        -40.91893375
S          -0.83472384017173   -0.40244887923492   -0.53132189486342
O          -0.05263566481785   -0.73671493307368   -1.69315139746264
O          -0.85622687324603   -1.33720668964661    0.54195158540730
O          -0.32980619578910    0.96883379957285   -0.03310937393040
O          -2.29252101384133   -0.10594164667384   -0.96765986172395
H          -2.21244299852396    0.46950089555267   -1.76798331414137
O          -1.29760292852461    1.29145318787100   -2.92830845655456
H          -0.87988494085155    2.07797612645672   -2.56806493969956
H          -0.64445679166485    0.57438109327559   -2.86953995005817
O           2.24926690333385   -0.52096845114125   -0.23338897077567
H           1.55411255706505   -0.74580873767717   -0.86998525439341
H           2.37399946785686    0.42881972399605   -0.28734844999458
O           1.33684650382067   -1.35033598848193    2.20424069847602
H           1.91870460945759   -1.14619736023492    1.44962469560063
H           0.58007037510701   -1.80171672227252    1.80563814413701
O          -0.06138003606139    0.82130558918979    2.44953864491529
H          -0.22684288180505    0.97933530629168    1.00928686870982
H          -0.89409396342972    0.49796389800132    2.80264490007626
H           0.56961770203171    0.03776977823264    2.48693632622348
