    19
        -40.91892643
S          -1.15386240468699   -0.33176031739810   -0.78404692768245
O          -2.29531853360595   -0.22416187647971    0.09895714521196
O          -0.48372911983950    0.97095406495156   -0.95502093772757
O          -0.20617504530372   -1.35637872950572   -0.42156776708661
O          -1.70943230722264   -0.70885651779990   -2.21582923120985
H          -2.50417166711110   -0.19126230688361   -2.30626164350889
O           1.81420711066306   -0.35968343451319   -1.91264242829408
H           1.42827456571065    0.50350084005308   -2.08824889753090
H           1.06339793870278   -0.91482978873323   -1.64346330171162
O           0.78507174053035    1.29355948821640    1.15233361639215
H           0.06291267920557    0.96370190776262    1.79850481251098
H           0.28434429169948    1.28388310896960    0.22761802056796
O          -1.20395814343742    0.31491379853208    2.39404565260295
H          -1.68886127989852    0.01646186915336    1.58229294720638
H          -1.81743480265016    0.86226144490786    2.88916723680219
O           2.21404736249996   -0.70946218115295    0.70629313591795
H           1.48409026467488   -1.34766221940547    0.66106265297577
H           2.44010169608991   -0.56092216344124   -0.23976830351172
H           1.48649566396823    0.49574301276901    1.05657421810941
