    19
        -40.92141920
S          -0.88247755157225    0.74647425373454    0.38061161387952
O           0.54753295334506    0.42891117371452    0.90224704373498
O          -1.78307767436081    0.47215164280416    1.45218851001301
O          -0.91362571147622    2.05249328030190   -0.19891804412595
O          -1.06527299186614   -0.26519305775110   -0.77650723004025
H          -0.84398158236265   -1.19482287013764   -0.42855767633113
O          -0.28948707894194   -2.45573663107625    0.24879126591785
H          -0.44029132863311   -2.28510163627480    1.21462936856946
H           0.66121615755538   -2.50647208740146    0.12262006383273
O           0.10446007086692    1.62016600476974   -2.61296746206868
H          -0.35880154726140    1.97351334551668   -1.82689843600605
H          -0.43884183087912    0.89132994913147   -2.92279484007105
O          -0.61928960574465   -1.56276955271468    2.70620506979840
H           0.17183453914493   -1.12908381734602    3.03428281238922
H          -1.20802555225142   -0.84044998946857    2.41044004086168
O           2.07961451657987    0.81529179441238   -1.09468978146208
H           1.20847092340143    0.58007385632319    0.14623801523737
H           1.41814150564600    1.08376934146981   -1.78965962619417
H           2.65190180880162    1.57545501000649   -0.96726068793008
