    19
        -40.91173139
S          -0.14924063048151    1.68144335056814    0.73217935297708
O          -1.38142426874486    1.45084584292604    1.42420692595004
O           0.78746451883226    0.49843523314995    0.97667382162883
O          -0.19168020256509    1.99434908129603   -0.65480933894435
O           0.57636859832540    2.87502989774790    1.47129383797800
H           0.34779839802958    2.81330954103054    2.39616644115890
O           1.04584270082166   -1.82184496936171   -1.96047238188505
H           0.47693489485341   -2.00192761279518   -1.16910979513444
H           1.65525056914593   -2.55885812776992   -2.02613440272045
O          -0.27402789257511   -2.07738847583225    0.31925027663988
H           0.17194611126044   -1.39947644361941    0.84027092089365
H          -1.18762820399296   -1.75043536141614    0.21171833397298
O          -2.59414974255819   -0.67791230308337    0.27225653291952
H          -3.43316003198815   -0.85056740367190    0.70345264934096
H          -2.24203563304243    0.13938373667099    0.66714249202049
O           1.95660062520419    0.48109617061143   -1.17570425354881
H           1.67164711539599   -0.39487465457741   -1.57822546855350
H           1.34926564290254    1.15158934800209   -1.52710178493363
H           1.41422742118881    0.44780315012251    0.07694585022467
