    19
        -40.91346207
S           0.54371694258734   -1.80656946726608    0.79597098514194
O          -0.36203808967043   -1.77850208016497    1.90176392937504
O          -0.01621903976394   -1.43336573525587   -0.47351547872146
O           1.79451235781474   -0.99510576549183    1.09153948762299
O           1.11644359288041   -3.26123381765500    0.65423740772700
H           1.30462598399557   -3.57680290402402    1.53594133932049
O          -1.71413808565284    2.02572926858427   -1.62414777585841
H          -1.73466914235393    2.96727923521579   -1.44503342192123
H          -1.87986752449878    1.57490964891926   -0.78398284515744
O           0.72812539917245    0.82058474681868   -1.97194210074652
H           0.52260307091904   -0.10803007500053   -1.79667892238025
H          -0.13342043800917    1.26272026049706   -2.09425687020170
O          -1.45469571529970    0.50669329647242    0.72584669288370
H          -1.14168564816824   -0.22697745536537    0.16689272660804
H          -1.68080812674933    0.08937291198158    1.56260166384766
O           1.14866986851568    1.32337730807125    0.54097378403407
H           1.14994404615913    1.26663966100251   -0.46186986110841
H           0.20341537158706    1.29826309020381    0.78468589878461
H           1.60548518654152    0.05101787246313    0.89097336074348
