    19
        -40.92136404
S           0.66007311172562    0.76668072818310   -0.94781107258172
O           0.11776264396189   -0.55692578185903   -1.15643977064217
O          -0.01487578391758    1.80741469821435   -1.68280600700864
O           0.75872278990332    1.07197878959269    0.49049860128677
O           2.16107540594249    0.72908100386204   -1.46420911188479
H           2.33474290790752    1.62367707035148   -1.74334111902024
O           1.92064498162036   -1.18496085613378    1.36470147451264
H           1.63307019065346   -0.28260698925035    1.12969269034349
H           2.55025702651725   -1.44641368665300    0.69057817446821
O          -2.34388288848307    0.86877937669153   -0.88286318496357
H          -2.40494508270066    0.07356250806097   -1.41950632544076
H          -1.57712514191332    1.36736752734847   -1.24616823359014
O          -0.58639539674079   -1.97808796857364    0.92963978205321
H           0.30245379475353   -1.96020960411799    1.34823671189252
H          -0.39196698054892   -1.70083976013928    0.00522813874011
O          -1.43331229371955    0.29606201647883    1.43115785055430
H          -1.98066452980391    0.53134038311180    0.59829872773115
H          -1.17592652185020   -0.76293483826096    1.33446604434557
H          -0.52970823330560    0.73703540309417    1.22064661920664
