    19
        -40.91234342
S          -0.16046214094550    0.48088864969395   -0.00566031828690
O          -0.40405091001597    0.66737600196176    1.51036961002776
O           1.10403675099634   -0.18737825345133   -0.17677733433052
O          -1.29866023312812   -0.14374106872521   -0.59728392501597
O          -0.04141756114587    1.93831469025513   -0.49736126392924
H           0.85219936903301    2.26124586822631   -0.19366761430430
O           0.06222255974182   -2.65582821892924    0.24002637144157
H          -0.36611944400999   -2.85277054799811   -0.59674205058570
H           0.64368708448071   -1.89773504396069    0.06456617151406
O           2.33699433816828    2.10127610792835    0.49795106140014
H           2.31672595917723    2.12763382527635    1.45823218854075
H           2.34484676123808    1.16395434827131    0.24112315600726
O          -0.29700897287364    0.50375046612051   -3.11575552246819
H          -0.31311964919791    1.45897159856325   -3.03322799021946
H          -0.81117860060685    0.16066527892732   -2.37718026838535
O          -1.63810686738422   -1.49972974552440    1.93595805955805
H          -1.01784636259355   -2.08774337461195    1.44072704601873
H          -0.91364284494175   -0.15709953711935    1.84533694937435
H          -2.39909922601316   -1.38205103479682    1.35936565365062
