    19
        -40.92135379
S           0.02551267911377   -0.86340851999945   -1.30017675697741
O          -0.22722762027868   -1.95876977727185   -0.38988984466505
O          -1.18701716948098   -0.09515083283354   -1.58434833238573
O           1.11459553764852   -0.00019677472883   -0.87093368699523
O           0.48501489269444   -1.49309650973273   -2.67225740183084
H          -0.19779101320333   -2.13227860247072   -2.85093674535543
O          -0.86329538273352   -0.73424998960970    1.83694571124370
H           0.07224581941450   -0.52068314111336    2.06821251112793
H          -0.76724815189975   -1.37165834562775    1.09022632212897
O           0.41887426425831    2.42535982728240   -0.07597335941327
H           0.82529753816534    1.58763135551203   -0.39484213092878
H           0.38809457107589    3.01816002226706   -0.82918066472914
O           1.75594483250485   -0.40715304190599    1.70972683592372
H           2.23835258031962   -1.23096379807078    1.79810406041421
H           1.66855365346202   -0.24352874908183    0.75036674023888
O          -1.72256919778719    1.16112469965331    0.49800561032547
H          -1.41413821912702    0.38360858981266    1.20245511804832
H          -0.94600320987220    1.81512697297313    0.42457965841916
H          -1.66719640428304    0.66012661493780   -0.41008364459344
