    19
        -40.92315191
S           1.47049846729036   -0.84396134531581    0.08598662067439
O           1.16607093071879   -1.16302507224405   -1.31153775872712
O           1.33929354668977    0.59596735130524    0.31446130395300
O           0.70783809406710   -1.61049917016020    1.03454990337654
O           2.99141517087044   -1.20827233993524    0.27182368103387
H           3.35742930735864   -1.00557390449859   -0.58341588463200
O          -0.44028763449206    1.96441684612704   -1.10049345230921
H           0.37631769970706    1.61273035841414   -0.68230283725467
H          -0.96794791633719    2.30430651623713   -0.37002418134571
O          -1.16133516266876   -0.39107963390970   -1.72689163740598
H          -0.19799173444718   -0.79274723439532   -1.69244098793731
H          -0.99276089215492    0.61810168113966   -1.61933964730005
O          -0.84129365309851    1.19765049628124    1.70764588969497
H           0.03455016178903    0.98331073440062    1.31612721348472
H          -0.72268501137547    1.16232435822171    2.65776753628549
O          -1.81303703469129   -1.03596493080236    0.59059307026070
H          -1.74985394696077   -0.18381149174960    1.07306906983836
H          -1.58104147474742   -0.71044602723266   -0.79635251524822
H          -0.97517890807856   -1.49342715724945    0.83077460776126
