    19
        -40.91955071
S          -0.03007010549612   -0.31701085615252   -1.12197825990569
O          -0.80201837126515   -1.32673350294583   -0.25216957354802
O          -0.53272869040670    1.00771698177934   -0.83960875694171
O           1.37686859399688   -0.48589233428091   -0.97134617519027
O          -0.46320148270386   -0.72958094129158   -2.54299733695158
H          -1.43323231089938   -0.53026827271895   -2.55920589579567
O          -2.83621638397143    0.06133745926967   -1.84549184411827
H          -3.13827764190949   -0.55624860439278   -1.17368606086262
H          -2.30224122350557    0.72978055915584   -1.38600018283380
O           2.20868295992629    0.07989382722997    1.56694457518880
H           2.24435074641241   -0.13791507557075    0.62202173890261
H           1.82656084828025    0.97965481757838    1.59915879804684
O           0.85854636152514    2.36725828938384    1.05753853693918
H           1.28884107029014    3.10054630310594    0.61412519525377
H           0.28121177496532    1.94751308995673    0.39528224371385
O           0.23401791079601   -1.51309638719464    2.02105434210869
H           1.01613215210011   -0.87542990907354    1.97305513763513
H          -0.40679990028835   -1.41195066862833    0.70982622910474
H           0.60957370217858   -2.38957477523688    2.13347727925838
