    19
        -40.92045300
S           0.13984107417524    0.16304641835202   -1.58485671036052
O          -0.77978918198356   -0.95898815778365   -1.57993564557962
O          -0.39318411507341    1.30710930669150   -0.85038936828845
O           1.47071617756917   -0.18730574991690   -1.11763141332165
O           0.28333569068472    0.60412526524898   -3.09869725469040
H          -0.52387905650485    0.28881896076163   -3.49383820939870
O           1.56501061163111    1.18726854967775    1.06429470084254
H           0.99934500151078    1.90437266121519    0.75396346577121
H           1.74489529805414    0.67584241655943    0.23346253784697
O          -2.01848435008131    0.60377078372594    1.02370941324615
H          -2.42485541007564    1.40386436333039    1.36221650959265
H          -1.50777504864298    0.86294124070649    0.20996995755845
O           0.40554983031550   -2.23090807604576    0.33564322769640
H          -0.19862666531052   -1.91806838088333   -0.38560971415039
H           1.28206666229614   -2.01414358850037   -0.00801749226462
O          -0.00397918149781   -0.49335699630065    2.09604904749646
H           0.70748265870250    0.21726102570607    1.79532608450788
H          -0.90424798787022   -0.09919185030511    1.79478308226213
H           0.15657798211348   -1.31645817223339    1.44955778123988
