    19
        -40.92139818
S          -0.56882288541292   -1.03787246428432   -0.25953326558211
O           0.52614328154535   -0.69031298746482   -1.16029063098713
O          -0.12558765045562   -0.95968530614770    1.13126933506863
O          -1.74552036779784   -0.20365404323947   -0.49045352177195
O          -1.00157680681086   -2.50347399524359   -0.54986857081582
H          -0.17905516756115   -3.00808087618870   -0.38400031791684
O           1.52233500998035   -2.89501169734982    0.09667582187964
H           1.67589213367842   -2.20940791993790   -0.56772968379683
H           1.30570519196589   -2.41275417217336    0.90516110156166
O           0.81976808070362    1.84005633513680   -1.66569026932267
H           0.74141541902636    0.85095432749261   -1.61302804829617
H           1.67978698521708    2.06199120128097   -1.30181929798236
O          -0.08724725079179    1.47889006079896    1.98087489337744
H          -0.03190694514675    0.51738951185140    1.71948084172142
H          -0.59383657268007    1.50042255678703    2.79560755356007
O          -1.19397090754406    2.18105240461437   -0.18209828243785
H          -0.77180885442803    2.06321194242338    0.75248527690583
H          -0.39694822418199    2.22143739651846   -0.84115188947063
H          -1.57476446930791    1.20484771510841   -0.36589105575060
