    19
        -40.91892633
S          -0.31967874048221    0.79202118050153   -1.15215527476407
O          -0.30941261447286   -0.10619323343529   -2.28670156115594
O          -1.33037548931688    0.50416328063537   -0.16473892319942
O           1.01418077640801    0.88558653673327   -0.52971881022447
O          -0.62509053987043    2.23969129665424   -1.71058635701974
H          -0.13750344952425    2.28767495594755   -2.52774557551773
O           0.11513666225153   -2.42031936184587   -1.18439026400907
H          -0.14626527747251   -1.59597809412166   -1.66921658301497
H           0.60696075095791   -2.95700280047990   -1.80983702581529
O          -0.67126991829971   -0.63679162002814    2.24930332223554
H          -0.45614047826537    0.30132623729546    2.45419877473711
H          -1.33422930798551   -0.56261730905879    1.54456412379766
O          -0.17334627983431    1.94975205520949    1.80135368176821
H          -0.76779471839070    1.70626893336025    1.07199149816616
H           0.68568086349141    2.06969732797914    1.38606483123392
O           1.24443667848611   -1.22499486092111    0.75305926953771
H           0.48135782232882   -1.07067774736230    1.48172086389226
H           0.84685992251965   -1.85523028802251    0.05140633484234
H           1.27649333745903   -0.30637649904914    0.24142770449694
