    19
        -40.91505827
S          -0.71930155547121    1.30029600657893   -0.17381558017889
O          -1.04306278461265   -0.02584854551978   -0.90045390196518
O           0.41139420750900    1.07806070764049    0.70415964832280
O          -0.57761471108485    2.35289755904876   -1.11081977230804
O          -1.97629226536531    1.49058526241888    0.71108456195888
H          -1.91849286312656    0.80026946025631    1.40900226170154
O           0.19837624239241   -2.19632728733714    0.45608544465295
H          -0.13086372319054   -2.02778259963774    1.34388301935152
H          -0.43091613386990   -1.77122338802638   -0.13837102562165
O           2.18508294189048   -0.55444227199717   -0.58983156174968
H           1.82871917463141    0.14311152413740   -0.01839886668658
H           1.75523234785334   -1.36822638524994   -0.27425909966269
O          -0.99614737226782   -0.29011819311494    2.42246557424601
H          -0.24243868238508    0.12290411276046    1.95136144580509
H          -0.92428913336176   -0.03602869956891    3.34541304967255
O           0.72864558625918    0.12453304777846   -2.64432568471101
H          -0.40499548333662   -0.04988210824075   -1.72769195087007
H           0.80436378908750    1.07853463969128   -2.74433955276195
H           1.45260040847248   -0.17131283188933   -2.02114802919801
