    19
        -40.92071428
S          -1.09699845361638    0.07006262779573    0.99321520402328
O          -0.37130223787885    1.23314724441189    0.44518847367094
O          -2.44790694454906   -0.00306464210598    0.48593857043413
O          -0.33016140257289   -1.13976562450414    0.80498298511750
O          -1.20670888831506    0.32928498938970    2.54801093753890
H          -2.01729421658730    0.82167728358418    2.64088935913285
O          -1.68193592814567   -1.20736371132757   -1.70878107912360
H          -2.15323463941405   -0.76284850810874   -0.96494506214802
H          -1.37740902724330   -2.04440391718972   -1.34619742245049
O           0.31484625192460    0.35983641469105   -1.81276847174043
H           0.02519251607275    0.88933267676357   -0.98217659029538
H          -0.47834015827309   -0.28081545413103   -1.95948956027686
O           2.26381342972939    1.20433536818605    0.94799852411709
H           2.61953502834231    2.08704172697467    0.83586593868831
H           1.29024170684896    1.28819419382107    0.91275930657499
O           1.93462536341784   -0.99505789873334   -0.52083436484617
H           2.38298104446854   -0.29554633780451   -0.00061897183332
H           1.21004790720728   -1.29669438233151    0.07421989173447
H           1.12000863859658   -0.25735206944419   -1.39325766834550
