    19
        -40.91612655
S           1.52713443820746    0.36718134681714    0.73972455485834
O           1.02905496229334    0.30907894526764    2.10145917859316
O           1.10504099997899   -0.84077524642766   -0.00955528245628
O           1.22831724390637    1.57382158239116    0.02639438814172
O           3.10188147372336    0.24742907086447    0.83711219808737
H           3.23143883605824   -0.40394262169822    1.51969279067026
O          -1.55077966806047    0.31958170834908    2.13621984456298
H          -0.56571140219523    0.44882848392066    2.19243545815076
H          -1.82170595393949   -0.04797476016179    2.98028108508492
O           0.66504930144867    0.55370305362396   -2.32548483144887
H           0.87612840039182    1.19048436939155   -1.61138103126580
H           1.03427822992575   -0.27135868113565   -1.98652676611956
O          -1.87594423035597    0.10464024720576   -1.99780742502631
H          -0.93745257498863    0.39162165344474   -2.20468333060507
H          -2.18577111528748   -0.38906294734285   -2.75933652952752
O          -1.34259829784492   -1.17643333621541    0.10957301498253
H          -1.57427452832868   -0.59206957288139    0.92746869262090
H          -1.66281198320416   -0.66581610703736   -0.73930492567749
H          -0.28127413173206   -1.11893717837376    0.06371892637122
