    19
        -40.92037975
S           0.44320330310477    0.78317190019767    0.59438034264792
O           0.75800257979119    0.90426418988409   -0.88586699938428
O          -0.99570335588418    0.67109983269155    0.76781108975862
O           1.19596241326503   -0.26756897177609    1.20169898002301
O           0.89728100039082    2.13936481554791    1.17347626543844
H           0.19468170711807    2.78975315501148    0.92144051787896
O           2.12787984150518   -2.44322326608002   -0.07933868823430
H           1.96455504898001   -1.66499685896825    0.48548703696823
H           1.75947356991072   -3.19372095259187    0.39156990933960
O          -1.36480401307972    3.28272396442619    0.58680758984951
H          -1.57059424373226    2.32959698386996    0.55563597086955
H          -1.84434180741576    3.64932418880760    1.33382648733200
O          -1.64960067187538   -1.66764636441339   -0.36941507752429
H          -2.54590914352746   -1.58904473269506   -0.70226278613687
H          -1.47882028886340   -0.86498434672053    0.16037456374765
O           0.52510212541378   -1.34791794493518   -1.88121146103864
H          -0.32590060345732   -1.61352249937210   -1.46534797132024
H           0.68729776084702   -0.04678267525978   -1.39730165923791
H           1.22223478749539   -1.84989040763012   -1.39176409097897
