    19
        -40.91955062
S           0.83769739930628    0.17726852676824    0.79097588400753
O          -0.51383024737386    0.23267667701503    1.29861707686702
O           1.03765925648653   -1.17598396920834    0.08373389226943
O           1.22070230359963    1.25655188224741   -0.05706965902476
O           1.81790051042429    0.06162624298160    1.97558869480918
H           1.43995858672731   -0.67353391760498    2.52113551587345
O          -2.30157665069654    1.42646518117311   -0.36363185315225
H          -2.57464855007121    2.24167374472481    0.06103262970738
H          -1.74369490253546    0.95552626030131    0.28064724691162
O           0.25986803585809   -1.82976302057292    2.83526792486161
H          -0.40657846499735   -1.22731611223807    2.46646661141476
H           0.34832504780441   -2.55503908482030    2.21061989889149
O          -0.37674949924670    1.43943732445131   -2.26345669494879
H           0.30258515339153    1.66236128001385   -1.60736673930351
H          -1.22108136167617    1.49004281790247   -1.77237492330290
O           0.24875235895734   -1.06056848399893   -2.29094075297889
H           0.69864938309631   -1.16671064938369   -0.90343014436909
H          -0.07366856567829   -0.10740050262372   -2.38278965465355
H           0.99973019663510   -1.14731421710381   -2.88302496381014
