    19
        -40.90863214
S          -0.67015226149842    1.50049304210755   -0.82483606113831
O          -0.63440540373236    1.66507391824655    0.69888090080104
O           0.65557105898536    1.36181940078671   -1.35263892160554
O          -1.61401037666171    0.50259822313211   -1.20347756038737
O          -1.21081236637790    2.90276444825302   -1.26645404221369
H          -0.48315168726937    3.51134779424537   -1.15768253365785
O          -0.91777542411811   -1.99642834441228   -0.37396272791876
H          -1.35844626736547   -1.30052818847315   -0.88677873507685
H           0.01133229912799   -1.97516923721392   -0.65765888288335
O           2.03793898311155   -0.47896579973817    1.71777646612394
H           1.15036145688416   -0.54700349902814    2.07894354799097
H           1.97968309813848   -0.79669339221452    0.80744507980962
O           1.59059527360633   -1.12123278577629   -1.04045972204389
H           1.32472881873901   -0.19584744821662   -1.21106104535027
H           2.38351658633081   -1.27953470593731   -1.55603685154539
O          -0.89053186619164   -0.59976539991663    1.79678601571735
H          -0.70627968531917    0.76298986767575    1.18338469145638
H          -1.74556692253332   -0.67055203966396    2.22653472306430
H          -0.90259529384020   -1.24536584391482    1.02129566892034
