    19
        -40.91322275
S           0.93138030495246   -1.32984656128988    0.05598090074396
O           1.86845950941798   -1.03654739386800    1.22018100409947
O          -0.38916932841180   -1.64424828183663    0.51718294307345
O           1.03318658903078   -0.31467994867624   -0.94442649081745
O           1.54600339071371   -2.64687430364651   -0.54376776666673
H           1.36978322325487   -3.36891392269614    0.05757992031575
O          -2.22107683816362    1.84575228503074   -0.64022518706790
H          -2.13262991584106    1.01224968671646   -1.15080882788237
H          -1.98643721566337    2.55719793234807   -1.23745342850140
O          -1.56125898665918   -0.50424140895682   -1.78780029191600
H          -1.72223707065548   -1.12978339149208   -1.07340146436491
H          -0.60487221796201   -0.35089958536022   -1.76781497173848
O          -0.68101426580519    0.99454440223912    1.40110127778192
H          -1.29218665966409    1.41105834765922    0.75549733035401
H          -0.79699046329981    0.04253594477190    1.29750846619160
O           1.85761202622466    1.44189869770578    1.10139813991386
H           1.90907612892445    1.53579691982779    0.14363993436385
H           0.88495385629857    1.47288946994905    1.32344381758520
H           1.98741793330457    0.01211111155961    1.27218470453537
