    19
        -40.91923800
S           0.80907088538198    0.53937717372863   -0.07846051537638
O           0.53250399045909    0.07551576507640    1.25965879005516
O          -0.32277602904301    0.00044641806377   -1.01586243229929
O           0.90634075467301    1.94943144403660   -0.24993106039271
O           2.04526270829980   -0.17968047406210   -0.61450846101219
H           2.06569771852163   -1.10026570057470   -0.15165119685358
O          -1.38193656250254    1.91801444515091    1.70243870701547
H          -0.87688269506777    2.68828293182073    1.97315212132393
H          -0.75379337777791    1.17380317104968    1.71554012246432
O           1.73189632571975   -2.31807212113368    0.68076611006377
H           1.30977103461316   -1.82013022860138    1.39443328807808
H           0.99752047275786   -2.72174953709202    0.16882426240301
O          -0.37214739338773   -2.76760883356976   -0.91669372158564
H          -0.29085948016821   -3.11413688262133   -1.80742217558318
H          -0.53099901231777   -1.81426547312540   -0.99937287844970
O          -1.81738791289536    2.02551933886577   -0.91744548600723
H          -1.02439928442666    0.75041199696096   -1.07968100205152
H          -1.88772192191954    2.03935866227566    0.06779681212065
H          -1.13916022091846    2.67574788375777   -1.13158128391058
