    19
        -40.92048085
S          -0.80853343888977    0.01026067421015    1.38666170263656
O          -0.53850460078709    1.28474362617872    0.70335805175351
O          -1.75837619573426   -0.78774138561453    0.64226760600993
O           0.42810490040034   -0.67617695714059    1.70041668643571
O          -1.50455771047309    0.37432642979156    2.76046160363044
H          -2.43367439720864    0.35658789366387    2.55014719044135
O          -0.86406521253954    1.11749789708197   -1.87117679255973
H          -0.90912158881990    1.19445063162552   -0.88376026901836
H          -0.78495413780633    2.01179875047862   -2.20989047708382
O           0.16467960021081   -2.21179759927072   -0.40238630642988
H          -0.76743964700170   -1.92741997265985   -0.29543709202575
H           0.53049098961902   -1.96693994016418    0.47151269310289
O           1.17484591278984   -0.38759286631584   -1.78413736264918
H           0.78106390957168   -1.24878523533864   -1.29681993620079
H           0.35185969508859    0.19154964849926   -1.99464510023331
O           1.99840215943901    0.93251601649182    0.20189641958131
H           1.66033545126518    0.14843598110599   -1.02735212350429
H           1.10047350292909    1.27541448117647    0.43258423255231
H           2.17897080795824    0.30887193617293    0.91629925358880
