    19
        -40.92079109
S          -1.26898441675122   -0.71925796552077   -0.28375352050572
O          -0.76979307349164    0.08256822264926   -1.40265377556164
O          -0.98941343735091   -2.12319094257694   -0.44209564867329
O          -0.83876016126522   -0.16351922417187    0.99183018704660
O          -2.84257042429546   -0.55021761274131   -0.29600544027033
H          -3.10938019466508   -1.03120614650391   -1.07321919876352
O          -0.72924558876883    2.45469911248767    1.10333670953099
H          -0.45129719210065    2.70492818772762    1.98681767636607
H          -0.96037892402969    1.49660158556160    1.14228688044010
O           1.63890933630004   -2.13937975152119   -0.71811998155191
H           0.65829007718584   -2.18603370261933   -0.70525846358910
H           1.95069519134394   -3.02534155495472   -0.52413870117400
O           1.81715878594870   -0.00715454640551    0.82147031321772
H           1.99033631230586   -0.79526661589130    0.25493275245950
H           0.91260308605817   -0.15922279754852    1.16272208315255
O           0.92911446596413    1.74518957910477   -0.71258289548418
H           1.48172440162566    1.07110734273939   -0.09798902595512
H           0.23238325060039    1.08736837544626   -1.15163583382327
H           0.34860851554406    2.25732846468551   -0.05594411686179
