    19
        -40.91912327
S          -0.78433080058827    0.77475910261145   -0.75563003046962
O           0.76000695616089    0.93897574488821   -0.49822380758574
O          -1.41045015789971    0.83166908142845    0.53054810197353
O          -1.18569845326283    1.73647949766947   -1.73201124425828
O          -0.90967834020855   -0.62146609125695   -1.35336740166660
H          -0.67845616250414   -1.36501716188833   -0.65963617926505
O          -0.92216452562615   -0.74034190651852    2.60890863088513
H          -1.48951896415494   -0.53280602145654    3.35257710170629
H          -1.14505793992097   -0.09672501452761    1.90509405518381
O          -0.28759255038646   -2.30632054310931    0.40228530975519
H           0.60816081304116   -2.00412577341288    0.68730350470285
H          -0.84418304336741   -2.12246409229616    1.17406673243986
O           1.66807923145149   -0.88419286878721    1.49022978422892
H           1.59911347360792   -0.11687482528341    0.90933439726772
H           1.03594913370553   -0.73890686965670    2.20854574203736
O           1.15524664458366    1.70308506075905   -2.93073992825026
H           1.50637145564260    2.58201292525144   -3.09461092809729
H           1.13853402491757    1.16797289042039   -1.38809932760045
H           0.18566919481213    1.79428685517121   -2.85657450298767
