    19
        -40.91990206
S          -1.35132081992050   -0.50234465456781    0.45462065572000
O          -0.24720100583286   -0.14735242212141    1.37574838062477
O          -1.05649870794400    0.00170927956075   -0.87749430060060
O          -1.66161176500949   -1.90123414879348    0.48977730410654
O          -2.60488385371748    0.30263825184374    0.97314117068462
H          -2.46649098970075    1.20149703469986    0.68181658429573
O           0.32573912281279   -2.46567614613596   -1.14294466865820
H          -0.43763726908083   -2.46699735651974   -0.52068887109843
H          -0.00997979294753   -2.05650828950059   -1.94616987522935
O           0.27909882009202    2.41225475039117    0.98824822688469
H           0.04878575264287    1.49426053980799    1.24693896628854
H           0.69905424846429    2.81264897387928    1.75127007053347
O           1.20296625695829    1.25230981687785   -1.27170275207889
H           1.08150044818991    1.94181776569291   -0.59001159129992
H           0.29434147275832    0.88665673534222   -1.38177350504390
O           1.78363055799814   -0.76753056616210    0.05827596827188
H           1.71143281754990    0.10619925992017   -0.57158084859168
H           1.05079993323003   -0.56389037826037    0.75881328921738
H           1.35827477345623   -1.54045844595651   -0.47628420402190
