    19
        -40.90700741
S           0.04566051867253    0.38588789120536    0.40286649996472
O          -1.17389559938246    1.13819891896379    0.51830404544199
O          -0.12733571567387   -1.03334948368314    0.49178093204872
O           0.79264105366629    0.75356621020014   -0.87986220599465
O           1.05516440447109    0.87675112616175    1.48988609483673
H           0.62573859761016    0.64773714003981    2.34631627485930
O          -0.77838869420572   -0.12502260480054    3.04912129644352
H          -1.50771990323570    0.39447938090387    2.69526532373058
H          -0.75721778722820   -0.94420600551549    2.53931289797748
O           3.34755256697270   -0.28408885402650    0.10229341660485
H           2.74311296677470    0.14481391295962    0.71387927722554
H           3.19176611145881    0.12264640098377   -0.75264605969266
O          -2.31448588848934    0.17264307855239   -1.74657964702328
H          -2.64405056911168    0.90222325602544   -2.27625222219018
H          -2.06500744934054    0.54811141046132   -0.88399627950500
O          -0.04285066803811   -1.12382770697515   -2.30854600693064
H           0.00118201038931   -1.79448527510798   -1.61568259690158
H          -0.96959185999681   -0.79472267098368   -2.30266991359361
H           0.57772592464348    0.01264388466368   -1.58279111720277
