    19
        -40.92071432
S           1.35833274571587    0.18091455663865    0.56344333613348
O           2.45344806263485   -0.42777020441057   -0.15598508358035
O           0.69715127642125    1.24347434239859   -0.15823354443207
O           0.37783297787131   -0.82592478833687    1.01621614506909
O           1.96742999429247    0.80573842794851    1.88065045534052
H           2.69876438410786    0.23140146063814    2.08911971089678
O          -1.90936431665134    0.22560888321900    1.94285194917131
H          -1.02019008186867   -0.13766797997558    1.75945720290159
H          -2.36785816739793   -0.42672389385649    2.47435684523806
O           1.10664312582161   -0.47802411203342   -2.40004942803292
H           1.75702404258131   -0.54884219182239   -1.66168868689826
H           1.03080924078936    0.46443913854724   -2.57620598823589
O          -1.88676185463045    1.04484567742123   -0.59264468742303
H          -0.97609493231458    1.40303896984274   -0.48024721675820
H          -2.19641901951157    0.91113133310396    0.32792564457061
O          -0.95005777178902   -1.19155394873481   -1.09043668947150
H          -0.44767044904491   -1.23113918754853   -0.19631799182938
H          -1.49739846729636   -0.24567139569418   -0.97788529299034
H          -0.19562079965818   -0.99727510729197   -1.76432666970602
