    19
        -40.91983408
S          -0.76918416819960    0.48410423669135   -0.04773360531735
O          -0.15616821932824   -0.15123313583537    1.08823650726915
O          -1.11319901014339    1.93639376198192    0.27816925322418
O           0.03970449853400    0.42221031626299   -1.24565154540156
O          -2.13818736568928   -0.14700806380012   -0.32476328603809
H          -2.05879992306267   -1.13845925768828   -0.07058616810280
O          -1.46770597854317   -2.49188478703151    0.32860914420174
H          -0.86951422357359   -2.64181508632634   -0.43764425094670
H          -0.90005370531174   -2.16895099460535    1.03933770678240
O           0.16264063468009   -2.21357681185892   -1.77100469031549
H          -0.13837331363212   -2.37302681214147   -2.66799365564184
H           0.22803024547440   -1.24507047510630   -1.67061803557402
O           2.26886841809750    1.50661576877147   -0.15880964374289
H           2.86092381828228    0.76255867812702   -0.02935116455241
H           1.54019806310856    1.18089018907261   -0.71496493782884
O           0.77540685197925    2.32865645763780    1.90492581184398
H           1.48768081067828    2.23342495624344    1.23441205979824
H          -0.42729635563784    2.26482960629291    0.97069913435060
H           0.67502893228174    1.45134144331894    2.29473138599628
