    19
        -40.91892663
S           0.95359201237946   -0.67884405111593   -0.82812556957468
O           1.82994974231175   -1.40917977141349    0.06206417778058
O          -0.43486082086686   -1.16797895191215   -0.73391653113193
O           1.00691242798783    0.75482427230465   -0.68409292565372
O           1.41379683151754   -1.00633690019724   -2.30525208854965
H           1.61972973761133   -1.93638693601076   -2.29119712117179
O           0.99101138834398   -0.68623948481947    2.41234587373668
H           1.43224210168081   -0.93339508943809    1.55959751450136
H           1.13664918869937   -1.41953277918486    3.01411787256283
O          -1.28420459248463   -0.20426674321860    1.38811536400523
H          -1.04059464721628   -0.68230707878607    0.48326627869534
H          -0.44868408147134   -0.36742625977728    1.95621675732847
O          -1.33079492485221    1.21298956998189   -1.95524055646881
H          -0.37499434234376    1.13194741923503   -1.79939610092388
H          -1.65621327185237    0.30805009305238   -1.94819031015392
O          -1.03679911614911    2.13355520266396    0.53530537142540
H          -1.27046807839602    0.82987774788817    1.12762647369569
H          -0.08179343183834    2.08378306363567    0.37085220585578
H          -1.42447611312504    2.03686667715109   -0.36409668594882
