    19
        -40.91039593
S           1.06346060851498   -0.34507325581706    1.57951557509048
O          -0.19984867699812   -0.69809835290020    2.19511046489413
O           1.41910500077338   -1.31808901404796    0.52399775875011
O           1.13733726015933    1.00868083371667    1.09243696941653
O           2.17662979070951   -0.50569884029374    2.68321977026417
H           1.99565544773273   -1.36200847832238    3.05970467681381
O          -1.96367039110641    1.29000863635339   -1.85229857307043
H          -2.21497477068048    0.98667681463420   -0.97465735180254
H          -1.15211576619609    1.79583723030003   -1.74911127123509
O          -0.01260423273368   -0.92368551965366   -1.42236554444621
H           0.66920398011951   -1.18824617386482   -0.60968898801121
H          -0.90542086351696   -0.83530257346474   -0.94644248858825
O          -1.92450415573060   -0.63546670818253    0.27207338088896
H          -2.59093885070194   -1.30491597646563    0.43829774093107
H          -1.33736017421183   -0.61505626011034    1.07320690389188
O           0.86705868215361    1.48826962464828   -1.44190219681202
H           0.98274284866920    1.43340606190735   -0.45847081102811
H           1.72808733879864    1.70124983677621   -1.80586403437862
H           0.26215689250676    0.02751210426235   -1.65676199106196
