    19
        -40.92159000
S           0.14516120548004    0.36485336545074    1.42331653793548
O           1.22233725626659    0.10289840183514    0.48052100428166
O          -0.00883443414344    1.74189000490485    1.80647429737102
O          -1.11186096162508   -0.22828397250321    0.94855896127749
O           0.54158972644700   -0.43750868804455    2.73111929270312
H           0.06204430387502    0.00064114058659    3.42747000704119
O           0.30231557885912    0.77774402768120   -1.93104255254467
H          -0.31927045482622    1.48057115969358   -1.62626993033285
H           0.92450360609648    0.68664878427737   -1.18252865579690
O           1.34438372539046   -2.34458159292639   -0.44151731375858
H           1.44177491987820   -1.49766837612951    0.05449606224809
H           2.12194067935168   -2.42872975373510   -0.99711826488844
O          -1.29610118200339    2.28231496328108   -0.46120933253256
H          -0.81017135561417    2.27439694472210    0.38654792874785
H          -2.13847252822607    1.86114736727877   -0.27488245974407
O          -0.85302563083685   -1.32331027083280   -1.25842373486985
H          -1.08761799831145   -0.93227377059580   -0.30734914078042
H          -0.42245795262275   -0.45788620905366   -1.72053240199882
H          -0.05823849342786   -1.92286351589793   -1.05763030435514
