    19
        -40.92174058
S           0.20829080910659    0.62061154349189    0.61348822900058
O           0.55232087218602    0.88646676446710   -0.84041155502462
O          -1.22177552778871    0.72314684633633    0.81416256881864
O           0.78419880321897   -0.61741366335467    1.05004634579655
O           0.89579049745991    1.78224549426637    1.36330991344519
H           0.30368064029677    2.56905441423776    1.24276705100393
O           1.99318079739790   -2.32582041896464   -0.64214971123319
H           2.92724109227213   -2.11550973504928   -0.69068119635397
H           1.62919072276405   -1.80146001248133    0.09622340323743
O          -1.13342708230170    3.36204172580769    1.00754933053252
H          -1.51921245124596    2.48543070229932    0.82395325929648
H          -1.57086959626716    3.70081269693770    1.79277279045035
O          -1.63736675654965   -1.74835020357193   -0.20774802536566
H          -1.71989626192409   -0.86798752919128    0.19454512582767
H          -1.13685762647154   -2.27710162755744    0.41918476679296
O           0.10856687144982   -1.17645705136499   -2.12511771697604
H           0.36058807333041    0.02957734063553   -1.48281007515018
H           0.85509204909888   -1.73406816947172   -1.80555147687177
H          -0.67873591603295   -1.49521912746820   -1.62353301727031
