    19
        -40.91814253
S          -0.56469497771225    1.53527733137553    0.65879770235210
O           0.57139563913090    1.34070058984012   -0.23615159190318
O          -1.76654624650919    1.99764914199294    0.02734703551590
O          -0.77236423181422    0.34092232037156    1.48828274970162
O          -0.10742061730063    2.67726754736791    1.66674350738952
H          -0.92556848861147    3.11538215737588    1.88068658759533
O           2.43012723004563   -0.41340472808802    0.19101895245014
H           1.81742026675068    0.33065130547167   -0.04611829608392
H           3.04604413570011   -0.05895140741504    0.83490165540768
O          -1.17012971201790    0.19000627914862   -1.89698452404635
H          -1.86403265158019    0.70686352213302   -1.46483770234085
H          -0.35829743650119    0.62853944289961   -1.59291519237553
O          -0.72101015073487   -2.29750864837706   -1.20609889065385
H          -0.16002999190313   -2.64049976531669   -1.90471597608656
H          -1.00964456827646   -1.39220466377613   -1.50053224272615
O           0.42138033015833   -1.75053757141211    0.99038685911739
H          -0.05287156587411   -2.07465829276688    0.13104491156254
H           1.32013020525097   -1.35653504560118    0.69950077954650
H          -0.13388715814467   -0.87895951519321    1.27964367560736
