    19
        -40.92079119
S           1.04942308062842   -0.13521097829132   -1.04307460318675
O           1.56215726107249    0.21444996887207    0.28304050887892
O           1.22790472830806   -1.52993515884461   -1.35442376453462
O          -0.31281661181277    0.34798643439204   -1.22202598380185
O           1.91761351498575    0.69122766914785   -2.07664547673409
H           2.77100760177293    0.27154982309104   -2.03176446571380
O          -1.68696928901677   -0.67636818478030    0.81951309633743
H          -1.20678185618558   -1.53110899002970    0.92529024473475
H          -1.43514622922806   -0.37673739462023   -0.07752405253502
O          -0.84757195111568    2.65373864636977   -0.09246256024396
H          -0.60961295990573    1.90240604346722   -0.68566709889468
H          -1.75890046239376    2.87960163563427   -0.28921387486165
O          -0.02275303046319   -2.71329824927921    0.65079992362062
H          -0.23331896318590   -3.60857657700647    0.37882489085631
H           0.52566266990088   -2.33118960497330   -0.06827384039857
O          -0.19739677131555    1.06244609000244    1.80382362730620
H          -0.48110080801437    1.85787417787104    1.24069090284410
H          -0.90909442694793    0.30592806493205    1.56034869769923
H           0.64769450290327    0.71521658407177    1.27874386862738
