    19
        -40.92139787
S           1.06514791547290    0.04600887127972   -0.57477958132009
O           0.20029104342045   -1.03272367878124   -1.05050957575210
O           0.32954084612806    1.30620485877390   -0.53959092450270
O           1.65119091551494   -0.27634446704612    0.72384405979448
O           2.25080970991453    0.19292682178631   -1.57088624786396
H           1.79949002810648    0.40609462444606   -2.41329534726256
O          -1.01573106031292    1.77206503784952    1.63218051450026
H          -1.93278768811075    1.79743213905243    1.35022596868344
H          -0.46958296735037    1.73582832719442    0.80282499221352
O           0.23197774594237    0.67157636726211   -3.19445167504987
H          -0.01499870449711    1.32095548842494   -2.52225987620300
H          -0.11242966698029   -0.16914176717800   -2.86528395994074
O          -1.35481557315153   -1.90210682820259    0.81951270405953
H          -1.24004741909538   -2.85395545577791    0.86059656393038
H          -0.82243312841368   -1.59696316188280    0.03263224626286
O          -0.10152398115888   -0.43316285000049    2.45288142989014
H           0.75801696112123   -0.38152099867758    1.82810881572332
H          -0.52903654872937    0.49616787916164    2.29641035927783
H          -0.69307842781806   -1.09934121768625    1.93183951355849
