    19
        -40.92218954
S          -0.39761446076668    0.85280560474956    0.67371608587721
O          -0.49232136934407   -0.45489153701053    1.31461019144351
O           0.95945451144201    1.10675685057912    0.20066625973669
O          -1.37329484801152    0.98854313234088   -0.40773633448211
O          -0.75730539435718    1.93972291596630    1.72839208727902
H          -0.07438212146775    1.79598872348271    2.41610589390985
O           1.32655760637735    0.83738088056230    2.89763108290604
H           0.85508649952635    0.00378310912163    2.76817213463210
H           1.77827228828155    0.99802255360664    2.05852902496526
O           1.46096876863204    0.11798084904679   -2.14294795108315
H           1.38126176482047    0.48698671980791   -1.22214626707568
H           1.69512836828166    0.85877195304171   -2.70628300777342
O          -0.89898582379901   -2.41494609253599   -0.33343363830705
H          -1.73162178675313   -2.81738741459652   -0.07716662911264
H          -0.69197629335251   -1.74033160502472    0.36809507249954
O          -0.93230102394815   -0.68331849541253   -2.16981735867672
H           0.06388520875079   -0.44317432562865   -2.31698603537153
H          -0.93437373359196   -1.51390411810285   -1.55228264517036
H          -1.23643817073388    0.08121030601935   -1.49711796619240
