    19
        -40.92267748
S           0.14650822164179   -0.94740128937950   -0.46399494202092
O           1.15305605021574   -1.25933874335548    0.53998354404256
O          -1.20077565682511   -0.98242388392459    0.05767622248254
O           0.43697665667159    0.37593251987408   -1.07026958390403
O           0.24646288459203   -1.98314298124682   -1.61820309762547
H           1.18941226906657   -1.92147274326974   -1.88900185143681
O          -2.72845910206862    1.12855504370799    0.19459573933942
H          -3.17288836496275    1.25168956561629   -0.64644183057238
H          -2.30601283096125    0.23505336575454    0.15811781228709
O           2.74412863259894   -1.18146529942559   -1.63221640026648
H           2.59309439013544   -1.27157055456656   -0.67764419574912
H           2.53416097874028   -0.26533764525991   -1.84050702482159
O           0.17870258916105    0.35956308256060    2.35666065358532
H          -0.62917819858570   -0.08903969529139    2.62129122544039
H           0.66815924537935   -0.29164232859154    1.79954281010017
O          -0.38202563891672    2.04074314607484    0.53669962716295
H           0.03949895195841    1.40720785921174   -0.23998520620528
H          -1.38788352019359    1.87719768628797    0.42781859215607
H          -0.12293755763657    1.51689287525292    1.38587790598581
