    19
        -40.92343654
S          -0.94405969175959    1.35732605108835   -0.33416667741246
O          -0.84541031927536    0.81278719845147   -1.67159112347709
O          -1.95414453427227    0.66216151066725    0.46487051389839
O           0.34091262964130    1.40414494269149    0.34549042972669
O          -1.43133039944862    2.85018641660670   -0.46020011087009
H          -2.27754213675855    2.75896713795961   -0.88679884985235
O           2.18384796165870   -0.26657214576976   -0.58193924400092
H           1.57437432743585    0.45656309900290   -0.31481758965821
H           2.74087811971609    0.09376498066401   -1.27317969313856
O           0.99199026023448   -0.51192325265044    2.08528281071161
H           1.80177998028592   -0.79217474261958    1.64466204282099
H           0.76994244460401    0.35355155923852    1.68304934744144
O          -1.03043801190016   -1.58685620523931    0.97463359222702
H          -0.23197456122084   -1.29921867519488    1.55406198143119
H          -1.55510915491382   -0.69421905869223    0.83178119914193
O          -0.01183814433771   -1.63775067845144   -1.29838313182402
H          -0.41722420789475   -0.80319902610764   -1.63533545163684
H           0.92115201083381   -1.39034180280715   -1.12815505946017
H          -0.62580657227089   -1.76719729824678    0.00073502469986
