    19
        -40.91855628
S          -0.54596292529872    0.78752731286113   -0.66020595988009
O          -0.30992942067917    1.68469805860068    0.55646782029540
O           0.63821659440034   -0.01751920204736   -0.88805306201095
O          -1.75937436523528    0.04847008808586   -0.54712899767613
O          -0.67280240086840    1.80940071720455   -1.80823543512814
H           0.25101617235685    2.11765057460632   -1.99282382524092
O           0.65906523147255   -1.83919830396673    1.15277885826432
H          -0.20366555846155   -2.27939577769418    1.02067649462486
H           0.81734763486711   -1.34235804504703    0.33396025028780
O          -1.86566181900716   -2.48735047597773    0.43122133100824
H          -2.15453951862759   -3.04947424654951   -0.28957684735474
H          -1.98425830150377   -1.57032529010549    0.12742933467945
O           1.90642458620656    1.97288634232876   -2.07461055856762
H           2.26957400072015    1.75507128213295   -2.93668962133786
H           1.78955873905003    1.13223251289533   -1.59364761425082
O           0.11407091841922    0.24976782021532    2.57593431887702
H           0.32055011363826   -0.63470260944337    2.14275610703019
H           0.91526273633204    0.52890625110246    3.02527554158498
H          -0.18489240768562    1.13371298067101    1.42447185482814
