    19
        -40.91965986
S          -1.58299849776726   -0.33108233530740    0.56207572323891
O          -1.65221028564913    1.13746741062854    0.51575337421967
O          -1.65500426438258   -0.89264916706302   -0.77804361165027
O          -0.43836640657727   -0.78749243044831    1.31068962410411
O          -2.87350218547984   -0.80308224499903    1.33011025226131
H          -3.58002728220924   -0.50504692000833    0.76548464630283
O           1.88707833142262    0.62005714708072    1.46684161943701
H           2.20749552329552   -0.14635137578751    0.93139365191087
H           1.12258350337053    0.24734086708130    1.93581267006886
O           0.39515469173081   -0.02366443718674   -2.04392689956665
H          -0.41655863160717   -0.42617651998265   -1.61798396181742
H           0.16453116931042    0.14309645107499   -2.95981956859330
O           1.82467773472977   -1.51727340301749   -0.08257882493014
H           1.58819442344350   -1.24777130102111   -0.97751311462321
H           0.98348158945656   -1.61544559508782    0.39316258127392
O           0.57770451164032    1.84129906183877   -0.27103839183962
H          -0.40575660779982    1.66688995054167    0.09576591830864
H           1.21704770708295    1.42475748027043    0.48578397817794
H           0.63647496599259    1.21512737139679   -1.06196966628609
