    19
        -40.91790581
S          -0.13967755938319    0.53749679674381    0.86276270280180
O           0.88017976730252   -0.39588105303834    0.45788582198682
O          -0.00901651759355    1.85047670295156    0.29985659896287
O          -1.52077261510393   -0.02325017359454    0.57791566986358
O          -0.13799604498060    0.63588264621935    2.42029933255560
H           0.73511181723038    1.02302520815364    2.64008544531833
O          -0.87086011033518    0.97686881232047   -2.13979309098194
H          -1.82498447342835    0.97937519146884   -2.03762948730633
H          -0.51718506641356    1.46746175075165   -1.38178151549211
O           2.25531784055037    1.58780785607539    1.90767003993035
H           2.47168163648537    0.81334384205223    1.37671420238123
H           1.88830787923190    2.23637067981998    1.29599682562536
O           0.34019170872536   -1.46459025729431   -2.00295650881847
H          -0.08161096019544   -0.65296536325575   -2.34070047281465
H           0.89294236089483   -1.15867322452376   -1.26810627858481
O          -1.33144647639331   -2.36829823482478   -0.25021639750535
H          -1.50598137418519   -1.03572672413013    0.27046789809068
H          -0.75457366083004   -2.15635633883732   -1.04889750800177
H          -0.76962815159775   -2.85236810699725    0.36042671195699
