    19
        -40.92217275
S           0.75990231090513   -1.01032616232329    0.55440249317788
O           1.89023959486912   -1.68450149910456   -0.01669201323764
O           1.02496944135132    0.40032803615189    0.86493375344100
O          -0.49277292322570   -1.15597828014310   -0.16579516335716
O           0.48279505808165   -1.69512941600065    1.97351133079246
H           1.31432329634776   -2.09137720541242    2.21684219506255
O          -0.81004085446463    0.73220050547745   -2.04313132879110
H           0.15414014513171    0.70230421893859   -2.23074862479102
H          -0.98552177126042   -0.14538313919115   -1.65987371628633
O           1.81745152814151    0.28457944659238   -1.84989424948236
H           2.30706513050201    0.95506284792022   -1.36758212743639
H           1.92539608757731   -0.53497709538971   -1.33569553362196
O          -2.24588578536593    0.02372552059574    1.37324247963309
H          -2.02825723778948   -0.18564180184642    2.28362995879762
H          -1.72159840800738   -0.59814290185957    0.81804343036149
O          -0.87382265217414    1.83727601323856    0.19548982333871
H          -1.59222628868866    1.31505755605078    0.68644557281850
H          -0.00065954420787    1.34245057161835    0.52393110796932
H          -0.92549713847670    1.50847280478136   -0.82105939822839
