    19
        -40.91250083
S           0.05486409453076   -0.72602280935049   -0.75569444810072
O           1.48573733081889   -0.75011485609523   -0.64276876909846
O          -0.64082172730125   -1.21928793812110    0.39882658303623
O          -0.40966512402565    0.69649579058394   -1.09732218598648
O          -0.40768507999547   -1.50223786790171   -2.02239307480953
H          -0.12310841870305   -2.42694687493462   -1.86326317619428
O          -0.09081917910399    0.92712255126323    2.05358977605884
H          -0.28320347091764    0.03948194638967    1.71456609059311
H          -0.90525005411736    1.43581400800969    1.88790533950737
O          -2.08382325925188    2.20582224067760    0.66641981656288
H          -1.84747650473828    1.63940372038215   -0.07871567427711
H          -1.89859617798204    3.10795252040458    0.39712590787218
O           0.73025106313348   -3.44073257030447   -0.66488576232548
H           0.18812496081759   -3.30024426495883    0.11898093564269
H           1.51535195728080   -2.89261699874517   -0.54850487780025
O           1.36711074232049    1.91980690417975    0.13371509504367
H           0.95477859692217    1.67247708458740    1.01138162820443
H           2.06553527490631    1.27191239247747   -0.02080428839166
H           0.32869496529557    1.34191502146771   -0.68815893556746
