    19
        -40.91790574
S          -0.21524334624200   -0.69016682475050   -0.72735782870391
O          -0.07233669182993   -0.80239566146694    0.70174540749812
O          -1.46372636398395   -0.13461419265419   -1.16373833631359
O           0.94434440655385    0.08809893093268   -1.32119570536795
O          -0.02343244954788   -2.10307506743260   -1.36184056171270
H          -0.77652418656479   -2.62941593187601   -1.02076303491112
O          -2.19337608946009   -2.53684246595810    0.05236073443201
H          -2.63697348437677   -1.78527778705386   -0.35728352076806
H          -1.76674460760757   -2.19441127694270    0.84557111987093
O          -0.70380963733749    2.37398760845990   -0.39713853989931
H          -1.16733092917136    1.57624011276931   -0.69561219254746
H          -0.16878964021823    2.66481261663438   -1.13877191012204
O           0.66773668503600    1.58106810656710    1.82459180812564
H           0.17093161573955    2.11894689858755    1.18072186691629
H           0.24527681006452    0.70981857354031    1.78502832158915
O           2.62392393076928    0.59498372500869    0.45177811869900
H           1.71453930541215    0.28833119242156   -0.62378557603657
H           1.99707590184018    1.10436490024469    1.05435224599313
H           2.82445876092063   -0.22445346702774    0.91133760326043
