    19
        -40.90602765
S           1.35313026549574    0.61991618094035   -0.71347000307303
O           0.73002797029511    1.83481691120723   -0.27147250383879
O           1.46422933822619   -0.34629242880671    0.46327316468151
O           0.78810954059909   -0.02225132536936   -1.85237316145481
O           2.85308310496872    0.94126253768595   -1.04502711129987
H           3.12151657632327    1.64418676122700   -0.45816453265163
O          -1.66404943161993   -0.89988702438253   -1.28512221393220
H          -2.13436066212899   -1.30186709769673   -2.01806975106422
H          -0.78507198411345   -0.63732943639674   -1.62126153894505
O          -1.83902958949389    1.19935108612805    0.45548198042317
H          -2.03018555223708    0.44620219201886   -0.12940002802150
H          -1.12279539778794    1.69445606788953    0.02933323731575
O          -0.26940008121014   -2.80919634786704    0.35642368296445
H           0.52583446045863   -2.28211818152229    0.46311197140528
H          -0.90708037853096   -2.24515205238307   -0.09879834620576
O          -0.13337695645431    0.38888849404486    2.21429108720702
H           0.80012245808287   -0.07102388408494    1.24993403528819
H           0.17912707019613    1.20619489388211    2.61034660044273
H          -0.92983076108735    0.63984266346215    1.65096342078655
