    19
        -40.91893897
S          -0.43628588512761   -0.24368554046073    0.89782495152968
O           0.91689496517520    0.47752079283096    0.59283555810272
O          -1.12582704009664   -0.42122570218284   -0.35985475756417
O          -0.16323201831359   -1.43154341389591    1.63368970218797
O          -1.18629176540783    0.78227152125282    1.74087326589924
H          -1.66813430424091    1.41392659609683    1.08768522024063
O          -2.21615596142091    2.07546349298199   -0.16716854734417
H          -2.30081845307042    1.24903944127349   -0.66183713501677
H          -1.41978428671904    2.51714096791874   -0.53261653755374
O           0.26134833686031    2.59857495169360   -1.06142905564731
H           0.52540573777984    2.32862142128616   -1.94333005098378
H           0.65829420984505    1.96412919889175   -0.44545248045546
O           0.42537305737385   -2.48840398939905   -1.11223285301430
H           0.01392373245075   -3.24983981893893   -0.69686975061045
H          -0.20909085449936   -1.75676562385294   -1.00602300524084
O           2.37333296339682   -1.57473963937029    0.45812809501185
H           1.83170662598159   -2.00627608417591   -0.24519468762232
H           1.63460616934634   -0.25641487651358    0.53653450713754
H           2.08473477079411   -1.97779367542334    1.28443757099865
