    19
        -40.90602782
S           0.91369537779963    1.19211655231088   -0.68559662114558
O          -0.39270171691257    1.52352252512684    0.03172140174602
O           1.85678010407907    0.67201621940164    0.26289689002763
O           0.67259182836135    0.41490929875866   -1.85452474865032
O           1.42547131308863    2.60135399754878   -1.14931200142858
H           1.89814585747294    2.98046864764606   -0.41214926813047
O          -0.49903139504096   -1.88638203987593   -1.19289079594907
H          -0.64803237359270   -2.49357935267334   -1.92028487776765
H          -0.08163361244063   -1.08765253580205   -1.57013488063801
O           0.84418742516922   -1.70768365059858    1.18044913356616
H           1.50127011041972   -1.08551671238871    0.83271090760952
H           0.33118897712233   -2.01317192322162    0.41276950176343
O          -2.76908077635780   -0.21560965328329   -0.61131506789293
H          -2.12270633493032   -0.92498900058357   -0.71615208377735
H          -2.26354555255493    0.58914614384684   -0.47567931333496
O          -0.41416219265292    0.30486479414991    2.19397451827415
H           0.23390040442116    0.69246280026994    2.78747494870025
H          -0.45023051133493    1.02901262302372    0.97335119426144
H          -0.03610693201669   -0.58528875357415    1.91269115276456
