    19
        -40.91965999
S           0.57582473822203   -1.00511596227584   -1.26099383673341
O           0.65931333904438    0.29687042579138   -1.94053080701050
O           1.65312897196217   -1.15147436671023   -0.29447246113438
O          -0.73173366882376   -1.22863161931840   -0.69589209315613
O           0.80517332886119   -2.09255626437656   -2.37586716242155
H           1.69079522948796   -1.90986375008492   -2.67445696264118
O          -1.10397809373640   -0.69776609683309    1.98412769896013
H          -0.93493303246037   -1.21453961600841    1.17927972319321
H          -0.26283710982572   -0.28405165515467    2.20957122528375
O          -2.33121230314825    0.79123431455818    0.18127785127923
H          -2.12598406403519    0.37124066151092    1.05199225770459
H          -2.20376245684203    0.05883450949271   -0.44389896043489
O           1.32213725095921    0.69583248093897    1.44899839746976
H           1.51078480912268   -0.06612734783416    0.82772417559913
H           2.17501582259193    1.02358713366458    1.74048595549305
O          -0.15509655986773    1.92353399106976   -0.27426061501194
H          -1.14693695694817    1.55758989054689   -0.07996713179862
H           0.41474586639859    1.60956907773283    0.49848415526043
H           0.18955488904275    1.32183416330740   -1.08160139992546
