    19
        -40.92048083
S          -0.40380307202650    1.53219906162778   -0.25674313622998
O           0.99877930804689    1.66818988626257   -0.58535057734615
O          -1.17400993792323    0.79152438009348   -1.23517103143344
O          -0.57953895082618    0.95935133478928    1.08662238336071
O          -0.99739907082306    2.99815631446342   -0.20328599863401
H          -0.24140056417682    3.53561300525311    0.01432392177939
O          -1.77194842614154   -1.26340150422036    0.41487210955152
H          -2.14472384876987   -0.95517314204116   -0.42051822771455
H          -1.46377325779409   -0.42572829960322    0.83944666389916
O           1.41427611542439   -0.55725497759025    1.78578069852511
H           1.26998252947699   -0.78208979468080    2.70738662861388
H           0.75595388564327    0.14965601468624    1.56309308446312
O           0.56568997890524   -2.09554653246153   -0.04327076310582
H           1.03556477997685   -1.59583162332261    0.72219768172783
H          -0.44838815528893   -1.90221513090076    0.12825704782577
O           0.95180497501479   -0.54593627116752   -1.96799372592461
H           0.80426840888341   -1.53582395210171   -0.91800342929049
H           0.04136644354916   -0.20419706145075   -2.07814615464546
H           1.38729883882793    0.22850829234402   -1.55349718541494
