    19
        -40.91923789
S          -0.91279820371113   -0.09377798157128   -0.31868909068669
O          -0.38445086141646    1.24561128313693   -0.41460509653504
O           0.20383318974285   -1.00715269264962    0.28875509671219
O          -2.09754530323034   -0.25036189628757    0.45526166587158
O          -1.07713973307008   -0.67137865835219   -1.72286916915139
H          -0.35863228831136   -0.21829270447902   -2.30650733909711
O          -0.72926418683408    1.76070845942771    2.20699022916338
H          -1.65568562246774    2.00910663453318    2.25006989832502
H          -0.50400438891471    1.75072302782810    1.25954076417137
O           2.44205949280673   -0.93694105055521   -1.34213045786890
H           2.67520687724077   -1.83344202528247   -1.59095317437958
H           1.77716170611947   -1.00423533959547   -0.63906871439952
O           0.80774911801473    0.61009607534086   -2.79695282185460
H           0.65890952807464    1.34007862476266   -2.18015945295918
H           1.57555431714078    0.11326446392848   -2.43934253093546
O          -0.51328694816306   -0.84207388724656    2.69780576525110
H          -0.49744812893608    0.14527452628441    2.73094557509687
H          -1.43784081202950   -1.07572796566536    2.55998451389768
H           0.02762224797694   -1.04147889363419    1.30192434939184
