    19
        -40.91864561
S           0.45460308163909    0.57646991259437    0.92244029823826
O           0.39381812554782    1.27112735457521   -0.34203642483189
O          -0.15922972944630    1.21395752260439    2.03455585358449
O          -0.22038858758912   -0.82364535494651    0.71691324609077
O           1.90563127078514    0.19738846580309    1.21499297101928
H           2.36958238919105    0.09089588216286    0.30445165309251
O           1.06926564059001   -2.14383818725054   -1.33248908103392
H           1.35405355039199   -3.00811091551106   -1.02911960010997
H           0.49335135814663   -1.78010524869224   -0.64073604050240
O           2.66762434893075    0.00574082807693   -1.18468024215309
H           2.22915423822296   -0.83703229938270   -1.43247934961298
H           2.04489396330406    0.70417881282976   -1.42777032980072
O          -2.26230960834670    1.48959855219999   -0.71000868410320
H          -1.29321442373496    1.56922646074575   -0.63100752959601
H          -2.44725928022414    1.29390072173992   -1.63076530111422
O          -2.52256011364469   -0.09801747865795    1.41396433622326
H          -2.19037742647848    0.48541197201250    2.10835800708405
H          -2.68439776849901    0.48712257531234    0.64040281432433
H          -1.20224101818726   -0.69426957148979    1.00501341246655
