    19
        -40.91908977
S          -0.54731971310479   -1.07376027746501   -0.04506801477329
O          -0.38625382068134   -0.87127887571495    1.38200718095802
O          -0.87084938743097    0.23206089029457   -0.69376227395506
O           0.60287444508254   -1.68037769520195   -0.66890323243565
O          -1.77397319314595   -1.99280039037145   -0.29483590267749
H          -2.53869458109509   -1.43885238056500   -0.03303726002791
O           2.59805997711589   -0.22070063025857   -1.44087915986502
H           3.33641571415179   -0.50446867900619   -0.89675363949938
H           1.87230200642803   -0.87918386250250   -1.27941854741809
O          -3.39985343685717    0.05769266288301    0.04620170590835
H          -2.53306846410697    0.41829590030402   -0.22145771502576
H          -4.00103735829240    0.21164852019553   -0.68630259009432
O           1.36018837272517    0.92275698431930    1.93340581071376
H           0.73101656557133    0.15308674065188    1.81496178851849
H           0.98579664691372    1.46059495420836    2.63427556144322
O           1.16210509195913    1.61942818234009   -0.48315748902967
H           1.84668550446264    0.99523905096832   -0.95037091687549
H           0.23913152365879    1.11223342596318   -0.64812766456391
H           1.31647412664146    1.47838546895860    0.53122236865643
