    19
        -40.90985690
S           0.40191453723761   -0.61591608553015    0.23067775550431
O           0.87857199272241    0.05236587787835   -0.94572877197419
O          -0.79227215049260   -0.03951639706849    0.79842507147995
O           0.17234032348811   -2.09892142793994   -0.05070152954393
O           1.50969607763226   -0.66468425249093    1.30923211915682
H           1.41251549895326    0.12836017520930    1.88828176342657
O           0.54274607901931    1.44988483637757    2.51737808869262
H          -0.22068087400942    1.14316542009067    1.99258958264078
H           0.26550842343456    1.49282942673644    3.43581679602936
O           2.01958055075638    2.43595507645597    0.13710445896868
H           1.58065699579601    2.39136741560438    0.99063651709614
H           1.70568673563499    1.68819187227109   -0.38382905335638
O          -1.08167044651553   -0.27742200470919   -2.76589369586860
H          -0.33428373372412   -0.00361887038053   -2.20312164822947
H          -0.70514349499309   -0.54477525334513   -3.60696946778715
O          -2.16926484161969   -1.84346815732113   -0.92597658297860
H          -0.79378254755248   -2.17536966156328   -0.40970246049545
H          -2.44886060658296   -1.19213318144033   -0.27285600192061
H          -1.94325853913311   -1.32629480888942   -1.73536296092970
