    19
        -40.92246921
S          -1.06853412570456   -0.05004693194547    0.00301241754974
O          -0.16226614442719    0.52636202066046   -1.08196766855360
O          -1.01869119926780   -1.49216960158031   -0.06033067433483
O          -0.75057356561382    0.51478178853530    1.27947694702485
O          -2.46802647869463    0.43521991526839   -0.43358626826842
H          -2.63199523137496   -0.04422365744227   -1.28412086742869
O           1.37871277133531   -1.61078009668269    1.17603119821183
H           0.52505615991148   -1.79500652474350    0.74805568559420
H           1.16831938242943   -1.29129370277572    2.05701135001834
O           1.39735419273742    2.06326197045373    1.74807845913471
H           0.56649694232917    1.55113666093969    1.74414741971790
H           1.14879095010350    2.98587667275296    1.67173617466191
O          -2.16204733183880   -1.15003545956997   -2.47170302087547
H          -1.74800095133054   -1.69313933405846   -1.78133204463163
H          -1.44491097662341   -0.76893967868186   -2.98613040473817
O           2.15475803373865    0.48629579569197   -0.24382118868659
H           0.89591850005483    0.53562143605572   -0.78515260740977
H           2.10706907655231    1.17268838544755    0.46336151047118
H           2.11256998566942   -0.37560964832071    0.23723357252012
