    19
        -40.90535352
S          -1.18448824808115    1.40371150653996    0.95165114567190
O          -0.44630056553840    1.98086632114213   -0.13527268976973
O          -2.30020191000195    0.49984800924168    0.41938662431230
O          -0.42053083213904    0.74535061197251    1.95775462910996
O          -2.01900046860430    2.54604228785451    1.62530901885823
H          -2.40054884901109    3.05516743103728    0.91322409256361
O           1.10223024125851   -1.23315723635498    0.87428510088216
H           1.58698520324817   -0.65060138644252    0.26330522359799
H           0.73017922392676   -0.63388678875126    1.54037117073825
O           1.79890603039047    0.72245416172040   -0.89925698762836
H           2.48255722596225    1.37096126572009   -1.07531350909910
H           0.97991387788980    1.22075444959548   -0.71263971012995
O           1.69936416277463   -1.81083635524111   -2.27187897328108
H           1.69475518043547   -0.88316154631985   -2.00599576360092
H           1.66003041743089   -2.31891702067445   -1.45922838654312
O          -1.19496959611211   -1.63506079309482   -0.27938998470225
H          -1.89227234934645   -0.39232360802554    0.08439032092537
H          -0.27027029905774   -1.57486891051608    0.10397155103717
H          -1.60633842543242   -2.41234241940783    0.10532713705001
