    19
        -40.91086416
S          -1.72117249015862    0.71354442759779    0.25987811525774
O          -0.63087452627835    1.19048577059323   -0.56317030343431
O          -1.25476508086335   -0.58644468956169    0.95645110606404
O          -2.26281340587482    1.63154565301455    1.18776996436213
O          -2.82962420362517    0.15950107656282   -0.68307181800452
H          -2.39705722320798   -0.43057514345870   -1.32098907486229
O          -0.60565734428976   -1.19512167048141   -1.68607638166475
H          -0.44496709579212   -0.26472124428024   -1.43600910509606
H          -0.64167029612119   -1.68878374780799   -0.85931967832016
O           1.89651355792735    0.95227002020530    0.45008731503882
H           1.11712129591049    1.29446414219958   -0.01531679704091
H           2.18450935562339    0.18121945075907   -0.07153615980623
O           2.20091049531173   -1.12589289872606   -1.35461406435279
H           1.30998770573263   -1.29870366532360   -1.69792160381793
H           2.77687705687712   -1.01432340288460   -2.11245209126348
O           0.50266642474985    0.24759675113244    2.52346990033983
H           1.18278755983806    0.50736117809782    1.83258440122459
H           0.16822646654030    1.06241707327116    2.90682764482561
H          -0.55099826225420   -0.33583908093354    1.68340862046318
