    19
        -40.91892670
S          -0.05832234294336    0.86166789650067   -1.14523498533973
O          -0.05916894174318    0.00188384477596   -2.30920612574143
O          -1.20847891844172    0.71607895014488   -0.28783053304502
O           1.19358000507195    0.72340424533704   -0.37764112862339
O          -0.06565997664916    2.35336598496408   -1.67002664102937
H           0.52675440058817    2.34623468773530   -2.41611142085759
O          -0.07002948919075    1.90626505536835    1.85303990481684
H          -0.60908177501226    1.78155526452552    1.05409366802747
H           0.83868145831362    1.89456901994730    1.53847074517715
O          -1.01839739097875   -0.57658649491691    2.13073615405572
H          -0.68324219150178    0.30845629972551    2.39997336002259
H          -1.57408531224984   -0.37748162422754    1.36041275247328
O          -0.13097659631023   -2.37704058591074   -1.26774481707040
H          -0.20249728456935   -1.50942067120071   -1.74227508586818
H           0.33722908856611   -2.97052388175368   -1.85900191692710
O           0.94142310408020   -1.42808231011022    0.83128907979237
H           0.13284269598629   -1.17143796016932    1.47731620582927
H           0.53373990800415   -1.96865072753497    0.06365355847049
H           1.17568954898041   -0.51425699320468    0.36608723584140
