    19
        -40.92217280
S          -0.66887855038011   -1.06891033955323   -0.56337776208181
O           0.79000920737900   -1.08610972036015   -0.39639563974449
O          -1.32636906921651   -2.15350423349165    0.10729294318337
O          -1.20510089259897    0.25468170521827   -0.29943065921207
O          -0.90274506928477   -1.28622241308516   -2.13082017604899
H          -1.08698428553416   -2.21655299454022   -2.22008073721455
O           1.66723757570908    1.18094242545724    0.06071240912783
H           1.42591652305449    0.16952164416729   -0.12409625494779
H           1.23330401085217    1.63573936058735   -0.73592093281973
O           0.14708311872555    1.81857833664426   -1.89915035614573
H           0.26710066318088    1.35762349185142   -2.73167797864965
H          -0.53959541233423    1.31423481936032   -1.40507369698151
O          -0.06671304488786   -1.23171110670575    2.29921553905504
H          -0.65814554818138   -1.63116259221892    1.63702238023793
H           0.78160150214472   -1.66495888401975    2.17840760016809
O          -0.06894926798477    1.40114253602327    1.84228391155335
H          -0.02364597793820    0.52436076127192    2.28369979013939
H           1.03052268136618    1.39479407863195    0.89295810504288
H          -0.79564816407573    1.28751312476067    1.20443150534118
