    19
        -40.92453842
S           1.15143368814607    0.49049285709807    0.86899492172285
O           1.70825712563498    0.09425992885324   -0.41992769221877
O           0.22808330143046    1.60837788301324    0.71225727850567
O           0.56093050494755   -0.62158468967479    1.58369020666576
O           2.35510447294247    1.00277222111981    1.75428687367367
H           2.72189503501193    1.73649799984638    1.26969059668474
O          -1.97656469622705    0.28735946406001    1.10952400263800
H          -1.24151650943362    0.94453756547345    1.02419088861478
H          -1.64719651898536   -0.33578473272930    1.76755261708194
O          -1.66582815008671   -0.79825707424499   -1.14423128656765
H          -1.12980865664189   -0.03400988043147   -1.61510240998232
H          -1.94229768065716   -0.38619114686077   -0.22256659277533
O          -0.15206971052138    1.04627912267707   -1.95268085082766
H           0.66943139411975    0.69692385256209   -1.52217226875372
H          -0.37550103757566    1.81847949229548   -1.41984182747142
O           0.25968281871801   -2.25204494174794   -0.41534305786050
H          -0.94157899319664   -1.51769787931574   -0.91194561761430
H           1.02363126018599   -1.96322171067646   -0.92870816071121
H           0.39391235218169   -1.81718832132219    0.46233236919962
