    19
        -40.92453849
S           1.11766858465088    0.96116447250722   -0.38558062626892
O           0.11793475445936    1.01989696084276   -1.44574974577684
O           0.55744463032036    1.42120699554188    0.88044652273170
O           1.73636565448818   -0.34327333265353   -0.27736319820205
O           2.26817417789298    1.97060925274532   -0.77562310082035
H           1.83845274622084    2.81788721173920   -0.84914634583599
O          -1.94787727112486    0.99990732705639    0.36860921808587
H          -1.92176248394321    1.19911745099177   -0.57468028186850
H          -1.05608760681584    1.28756275134201    0.69148423059438
O          -1.49982081627730   -1.47235685948604    0.55239164203280
H          -1.07802493036744   -1.62956261336542   -0.39261811060174
H          -1.83896606735099   -0.48378277114752    0.51943573562158
O          -0.29974964886729   -1.53739197292090   -1.66342804853482
H           0.59846640648718   -1.84016256196911   -1.48642829280076
H          -0.19803848437731   -0.55852042415561   -1.76894305935509
O           0.59295020029464   -1.13497790336206    1.91599894062446
H          -0.68586541137385   -1.44505514468109    1.20999584084627
H           1.19235177812989   -0.96306899495246    1.14876294083895
H           0.50638381753662   -0.26919984408209    2.33243572869231
