    19
        -40.92453777
S           0.16619026445686    1.49497933769552    0.24769206668198
O           0.42084864073989    1.25147029770748   -1.16788521959262
O          -1.20944159937227    1.15412295496573    0.59222428604176
O           1.13216990812929    0.84098184554770    1.10524722085382
O           0.33282095357956    3.04698347569814    0.48863746236562
H          -0.33184836546269    3.45395180642966   -0.05950895418182
O          -1.45588740797248   -0.48079020544643   -1.60610607583467
H          -2.11054229353749   -0.11926401537798   -0.99715814569445
H          -0.74866730912381    0.21343474811227   -1.62640380722369
O          -0.69916924328178   -1.02486326516757    1.91607435283668
H           0.13525520920537   -0.75282258875064    2.31554346127004
H          -1.05335734660779   -0.18735103898686    1.52509019290299
O          -0.13246240927464   -2.15323797228793   -0.26534732857618
H          -0.38829153768450   -1.82602908822438    0.69570713285694
H          -0.74460018144103   -1.58928546002691   -0.89829132553872
O           2.03601761030819   -0.90914121473257   -0.58782819396425
H           1.89283205601907   -0.25676382619844    0.14114990693686
H           0.82938718212165   -1.77578981789106   -0.43138250086489
H           1.92874584919724   -0.38058597310765   -1.38745453126078
