    19
        -40.92453850
S           0.68055923714107    1.33445442790949    0.28076974075408
O          -0.61156833563543    1.36272318000004    0.95646715283595
O           1.52885569038220    0.28218264520597    0.82979229305469
O           0.55237498483362    1.24953325606399   -1.15883175164791
O           1.39482611423685    2.70975289794997    0.58633343533263
H           1.46316392369053    2.74543634770423    1.53608468200036
O          -2.03156536932005    0.36481898723087   -0.97978807806452
H          -1.66025023590179    0.82984079798109   -0.18887077006211
H          -1.55545404847966    0.76075707281328   -1.71892635292801
O          -0.32706078882573   -1.23387541691219    1.81650986737497
H           0.49506456843362   -0.73939655659995    1.56752592946128
H          -0.94221446119244   -0.53610684817602    2.07111720154559
O          -0.96146203616880   -1.87379037421609   -0.53611271030188
H          -0.76041434496956   -1.75349979054492    0.48290849210600
H          -1.51716970803543   -1.02324128843044   -0.78902912925865
O           1.28732364787487   -1.22202854445407   -1.46984633654281
H           1.09113898154484   -0.25661500859933   -1.55306002574670
H           1.90742301583626   -1.26306116836650   -0.73211167662593
H          -0.03357084543815   -1.73788463655424   -1.00093193328867
