    19
        -40.91833710
S          -0.34256930280457    0.39708366271453   -0.85293712626979
O          -1.32900847149030   -0.34673466366556   -0.11836954967911
O          -0.64126513010229    1.76718868986268   -1.12137765897565
O           0.99303521429997    0.31792541098443   -0.03312696537723
O           0.02681484394596   -0.33043381318816   -2.14310319051787
H          -0.16793797841031   -1.32911230987886   -1.97795469815179
O          -0.99674293592981    3.17298093470453    1.13427178640430
H          -0.48296498290150    3.98040895093041    1.06935348452176
H          -1.00075466109050    2.77652823882853    0.24143955216889
O           1.79443249981460   -2.34023347486095    0.00697330796247
H           2.65079794018648   -2.48804434765787   -0.39875062963320
H           1.67115290734503   -1.37920750333784    0.06581455941433
O          -0.51146717250897   -2.65065944123708   -1.32908012474676
H          -1.15084836461146   -2.26395203297155   -0.71356092772976
H           0.30523157867213   -2.80990491952475   -0.80966809281694
O          -0.14858771639854    0.87230224666132    2.13896631663407
H          -0.45913624132584    1.79425475695429    1.97265229972246
H          -0.90621816903840    0.30716522318600    1.94540582089404
H           0.69603616231684    0.55244436149791    0.92305182615734
