    19
        -40.91923780
S          -0.70304057129912    0.48633053976643   -0.46078945229201
O          -1.45604381712103   -0.28654749608964   -1.54156643862323
O          -0.81691734336198    1.89346615890165   -0.64557543642544
O          -1.08117595931391   -0.02056109105167    0.83626523076624
O           0.78197087006970    0.06772277833036   -0.72481825890696
H           1.36233645155492    0.86324458862924   -0.42624821251214
O           0.20375030032555    1.93317093982357    2.17349310021911
H          -0.28383761499275    1.14512284717650    1.87388959604211
H          -0.42947659941654    2.65441176372631    2.14807091660329
O           1.87078223523040    2.17698446166963    0.11824612984003
H           1.44083200187766    2.15356300216955    1.00745474673921
H           1.34408139622485    2.79439563637209   -0.40118390553045
O           0.98981780804078   -2.69321655198317   -0.63722740480473
H           1.37969045120192   -3.00292611609450   -1.45712620091686
H           1.09405629031041   -1.72891434950347   -0.62296840087181
O          -1.65470575112239   -2.45636059598277   -0.27685574240555
H          -1.63011081507289   -1.22638100958665   -1.15520644898789
H          -0.73429744838725   -2.78748077466876   -0.36434192115634
H          -1.67771189473165   -1.96602474160571    0.55648808321615
