    19
        -40.90903592
S          -0.08816940003172    1.27875829045825    1.61254953984051
O           0.59521476149962    1.99536828918247    2.62550899926473
O          -1.59573471757852    1.38900116015130    1.76365608691276
O           0.27891601595654    1.50042073085069    0.24277469184203
O           0.18225651759206   -0.27730638021907    1.88131964643383
H           0.39143580446358   -0.35466408179570    2.80951297461418
O           0.87947157427277   -1.82776806956627   -2.06519616931889
H           0.80760886611627   -1.54994952725252   -2.97954125309802
H           1.50262458316736   -1.21392977355097   -1.63394537644722
O           2.32252605747157    0.14236881392345   -0.85591258019041
H           1.59758910384644    0.64413975255400   -0.44041102133726
H           3.00040691010897    0.78111928287400   -1.08159746313121
O          -1.12922836464546   -1.68929624491580   -0.27232891137687
H          -0.61153168752969   -1.53419835452399    0.52425038363497
H          -0.47207548661844   -1.85607227414259   -0.98087770636923
O          -2.22385923797096    0.65845372795399   -0.52773123098502
H          -1.94827036910139   -0.30394011514244   -0.50062567928966
H          -1.99464611852708    1.09468607035308    0.83372163208230
H          -1.49453480276748    1.12280868329395   -0.95512656697562
