    19
        -40.92136347
S           1.03297944097512   -0.58581781017374    0.71550708606040
O           2.35501008887663   -0.01078173622494    0.74301167264025
O           0.03450087561713    0.27501518869062    1.37359409218693
O           0.58334505812149   -0.98094998621785   -0.60038331642258
O           1.08174903733413   -1.90667231987998    1.59534230329786
H           1.77743467060184   -1.74135525859744    2.22533630272223
O          -2.19397434044541   -1.14951308676483    0.91322849940748
H          -1.43446704629784   -0.63864644030537    1.25142719940125
H          -1.95182442733476   -2.07311671996497    0.99957722484363
O          -0.64646771322630    1.89750055333448   -0.41449991432787
H          -0.43913782918383    1.38507390292928    0.45113572252900
H           0.27382480793793    1.93511223115052   -0.86190591306699
O           1.72566013355854    1.54678533725811   -1.28737785847206
H           2.11819135708638    1.07289291697415   -0.51933931589887
H           1.72252026294656    0.90643665031841   -2.00433240143160
O          -1.71281959132159   -0.07127332882686   -1.47586419798276
H          -2.23986321185959   -0.44075687935292   -0.73329065657206
H          -1.22088316710308    1.14794891404230   -0.96755803594497
H          -0.86577840631219   -0.56788212847541   -1.40360847303655
