    19
        -40.90980929
S          -0.40277242804289   -0.76761944337741    0.34022367615931
O           0.09238611782428    0.24810469070875    1.24035614170825
O          -0.03432577866669   -0.34007773835236   -1.09812076295309
O           0.03627615047288   -2.09524430271887    0.60780809682049
O          -1.94327957082629   -0.73687532357549    0.32114078020710
H          -2.22874617147989    0.20637971466139    0.32249808450743
O          -1.93160255259112    1.86276261270700    0.76493383686768
H          -1.06605561163932    1.54512831912235    1.08702325643950
H          -2.39874279467946    2.23621203362384    1.51586872383672
O           2.72516674988964   -2.10963903940856    0.33473923985296
H           1.77247019948670   -2.29328919782071    0.41857048645405
H           3.15096626871187   -2.51880051879061    1.09042916881251
O          -2.15395237619358    1.42787682673150   -2.10242507726008
H          -1.44414966030847    0.77981792682640   -2.07389733062832
H          -2.12724522139213    1.90495766817048   -1.26795218968138
O           2.30215434667773    0.38904996701059   -0.49901303890886
H           2.69598649625335   -0.48683437826268   -0.29674919755707
H           0.93543824699027   -0.00713013494194   -1.05295880757936
H           2.02002756953054    0.75522031767931    0.34752494288412
