    19
        -40.91923791
S           0.02426553162757   -0.73738772386368   -0.63729129913594
O          -0.22391275557390   -0.69114089864968   -2.03853193418462
O          -0.24095421793132   -2.12789220371752   -0.06407310797115
O           1.32361440105272   -0.28447008419113   -0.20284704661359
O          -1.05452293167861    0.13409995299818    0.08864832627102
H          -1.29155887873591    0.89699976390277   -0.56006352364900
O           1.30005238384073    1.89318539450282   -1.78833506079711
H           1.47171282031907    1.18914335285374   -1.13756285428905
H           1.60795954897254    1.54907785964140   -2.63006234775362
O          -1.35746025640614    1.85299164202653   -1.72729131785258
H          -0.40339220931596    2.10411395070174   -1.77394767266148
H          -1.48985217029341    1.22831568937822   -2.44908804111456
O          -0.77084805650054   -0.13950172512938    2.83046986826068
H          -1.60808320600663   -0.42165961784769    3.20394844244972
H          -0.94551871491496    0.11774896473258    1.91163154631346
O           1.12725148014873   -1.85401430197619    2.03356003908503
H           0.28196189446241   -2.17815587219151    0.82287473061591
H           1.72290582324840   -1.25401134968061    1.56385756318475
H           0.52637950382576   -1.27744278343887    2.55410368986185
