    19
        -40.92135254
S          -0.64797354837313   -0.27659062076008    0.53917573741641
O          -1.25203981365337   -0.70225816487857   -0.71962541206914
O           0.68431382932797   -0.88979098879209    0.71176767626490
O          -0.56244556817231    1.16358278545396    0.65169426806473
O          -1.53669636785872   -0.79286218147961    1.70338394416135
H          -1.77892626513542   -1.71140255186406    1.44566245922493
O           0.23891224192440    0.92415210180082   -2.15589678291269
H          -0.38688576783800    0.26131311794662   -1.78555689504231
H          -0.09687290175021    1.77679855808627   -1.86422711980464
O           1.75728258061013    2.34577660941232    0.88651001357905
H           2.04369572231172    2.28737148652119    1.80000212439112
H           0.81621642171679    2.04237884601336    0.87166440726080
O          -2.13363704694297   -2.94977953310365    0.33499141285577
H          -1.80469146299839   -2.30761596410906   -0.32421221789861
H          -3.05934049169064   -3.10291872641513    0.13150652545191
O           2.24149367910789    0.38818670618428   -0.67024119028330
H           1.63351562306230   -0.29209001706057   -0.04435055075771
H           1.58044146191175    0.60706399045479   -1.42160674146739
H           2.26363768439686    1.22868455577688   -0.09064163852727
