    19
        -40.92246918
S           0.97548016815124   -0.11588254642328   -0.42269796781436
O           0.28582769657958    0.69739412660349   -1.37814814703281
O           1.56060871705654    0.60178776247067    0.68588466452996
O           0.05541951271271   -1.20556515428253    0.12102105471475
O           2.07220192557146   -0.92893463391359   -1.14438713466549
H           2.53406844667710   -1.40901702791367   -0.41206356996622
O          -0.68722174203733    2.02684822209037    1.13904225738085
H          -0.74921100398548    2.56425003189769    0.34537385503850
H           0.20934678914940    1.64991453065930    1.13658614740371
O           2.74130155463699   -1.75393623004918    1.22902756080828
H           2.00171956852625   -2.28885993411952    1.53081723492623
H           2.51725812079632   -0.83192568288057    1.43574718633435
O          -2.35964087297531    0.55660091288066   -1.83725533329844
H          -2.52481662819071   -0.03040311732339   -2.57694796205920
H          -1.39628233687380    0.71258520849340   -1.81717683839959
O          -2.10256891286057   -0.16735836069175    0.69934493617505
H          -0.93238433340452   -0.81718103748752    0.41148577024876
H          -1.75425036651537    0.68704112205982    1.05313808053227
H          -2.44685630302473    0.05264180794518   -0.19879179485851
