    19
        -40.92037972
S          -0.88824121138041   -0.59764205914792   -0.12931080469854
O          -0.63227376318968   -0.24024834235133    1.25624668491888
O          -0.88440864144479    0.66201757133396   -0.97690580157075
O          -0.00157272702702   -1.58366514507959   -0.65955785563487
O          -2.34177535878098   -1.10351222070735   -0.23919231634579
H          -2.87705284576408   -0.51871005102131    0.35371842647553
O           2.17675659342394   -1.06257381195548   -2.15211834611713
H           1.36661098804995   -1.40947042223170   -1.73420085263585
H           2.90996628123069   -1.46439349481222   -1.68131107908023
O           1.87716267252818    0.70587669613898    1.26956894070484
H           1.00703700507855    0.27305693884724    1.36754935068312
H           1.94232342915063    1.35032893543101    1.97722482492891
O          -3.14972231446130    0.43800673530786    1.69459355279980
H          -3.53851825768768   -0.01582971789026    2.44642352105251
H          -2.18167008624549    0.40599187103928    1.81127475364931
O           1.47326801576365    1.34104524164152   -1.29015399605484
H           0.11747927924793    1.02232216359227   -1.16926622146956
H           1.78874714283079    1.23480655481546   -0.36459887846032
H           1.83588378978104    0.56259258281885   -1.77998392425738
