    19
        -40.92218946
S          -1.10799293439617   -0.31420126413209    0.11509486100953
O          -0.38630116744739   -1.15043584438967   -0.83880244768652
O          -0.41132611353435   -0.26156301898786    1.39645949680911
O          -1.34071259572807    1.02694204716064   -0.42090080548428
O          -2.51251877426623   -0.94301054193938    0.34925951251642
H          -2.28710135523198   -1.82835099715160    0.70329324821091
O           1.49023290180693    0.09280059230767   -2.12588036757642
H           0.83174435634074   -0.48055626171366   -1.64859295716592
H           1.26159629469563    0.04107066140365   -3.05646249440548
O          -0.98184770802951   -2.92630586297727    1.15432106548504
H          -0.54628905382194   -2.82818746452361    0.29721887755159
H          -0.56280021536526   -2.26528866397238    1.72113118441107
O           1.46256991843068    1.52700597029847    1.50476418614926
H           0.80379806847166    0.78211428482933    1.54194825006818
H           1.22659331991273    2.12585187827164    2.21653441523888
O           0.80957804211062    2.16129560515842   -0.84956016953405
H          -0.18045123397590    1.79867885370014   -0.71477238977923
H           1.20945838066492    2.02418510912584    0.09530545590696
H           1.22176985932550    1.41795490752670   -1.44035890174357
