    19
        -40.91376530
S          -0.73686953372798   -0.43237202291024   -0.91140017373740
O           0.63801638468182   -0.80069301226531   -1.22044551528919
O          -1.27869160731489   -1.33359513054142    0.11544060731213
O          -0.90157427625895    0.95270136231821   -0.54177091546012
O          -1.58788576984251   -0.67359548859834   -2.20750319880243
H          -1.28440044185622   -1.49694148209089   -2.58020118600208
O           1.99106422023759   -0.72459827230774    0.99610397316207
H           1.57170796515253   -0.71266221994568    0.09648873447438
H           2.61440494299568   -1.45412214809660    0.99191217450628
O          -0.77138534797546    1.65410250100026    1.96991224450452
H          -0.95065663021095    1.51459741952921    1.00811356633309
H          -0.05050647081493    2.28639955743644    2.01927117825106
O           0.57896116129484    1.41615647378051   -2.88129276253790
H          -0.09632450329949    1.70741096276413   -2.26148234885679
H           0.92406646504397    0.60250335894930   -2.49917972789000
O          -0.20418650231239   -0.79122506072776    2.26331767244001
H          -0.75862531514086   -1.11634964050549    1.40655611222779
H           0.75925585595193   -0.80755248897365    1.90945897681455
H          -0.45637059414446    0.20983533156789    2.32670058989725
