    19
        -40.90743843
S           0.05695096717416   -0.62225703370496    1.03988173315341
O          -1.33440695071387   -0.83752932285582    0.44217315791296
O           1.00357449043772   -1.45999410916661    0.36462707115964
O           0.39036369368714    0.76315677101377    1.12371225516817
O          -0.12871094763119   -1.16218917089997    2.49320577989750
H          -0.18693723766256   -2.11425845470923    2.45283815608420
O          -2.08866437601888    1.18299092095856    2.36948584012640
H          -2.45477176086962    0.53894802128881    1.75998256788975
H          -1.17437203849056    1.31324217852624    2.09846784150487
O           1.32146875647431   -0.44847926174401   -2.14153230784817
H           1.63355298306861    0.44864751407920   -1.90960155908347
H           1.43768334929447   -0.97271632362438   -1.33201742427461
O           1.89149711865281    1.86727236347068   -0.87943516918863
H           1.32553511352390    1.62386655815279   -0.12830662981754
H           2.71593782922243    2.18634446039884   -0.50838844363450
O          -1.23248879176356   -0.33173882688447   -1.98393526904666
H          -1.60140592759593   -1.04934037663553   -2.50505104051228
H          -1.34217383316556   -0.60090110961728   -0.59228543257308
H          -0.23263243761109   -0.32506478804328   -2.16382112692678
