    19
        -40.92217278
S           0.83472267347040    1.08188732753966    0.19902667743000
O           0.79904362204730    2.04169489075903    1.26475460242431
O           1.07968538253888   -0.29347690834583    0.59561189704416
O          -0.32572488204957    1.17009955457073   -0.69671004395282
O           2.08880126892723    1.45897371740283   -0.71963964461830
H           2.25101328110075    2.38040978625638   -0.54050089908368
O          -1.60070908214222    0.95990670060320    1.82318753538942
H          -0.72929608049017    1.39393539257329    1.81643611046317
H          -2.13738404993091    1.45419646143512    1.19899018131004
O          -1.18837322930667   -1.60066704376045    1.17935569685593
H          -0.22728253309051   -1.46168880746605    1.24855878201926
H          -1.55918891311030   -0.77754895505273    1.56742926624550
O           1.28373154660130   -1.58071878693692   -1.67017321593660
H           1.41257901546000   -1.17858721282907   -0.78038128798422
H           1.76195094746481   -1.02167833260321   -2.28564801272901
O          -1.19362259912275   -1.07579968387502   -1.26247166598938
H          -0.92692227214961   -0.06661092884091   -1.10066234148477
H          -0.31132556789706   -1.46396849613604   -1.58004430758879
H          -1.31169853832045   -1.42035867530701   -0.25711931979945
