    19
        -40.91641692
S          -0.28277315991083   -1.12017919697373    0.11689390329142
O           0.88095845069176   -1.60653105870354    0.79324158095455
O          -0.83440600158292    0.09403391067905    0.67976306827059
O          -0.00587618848312   -0.92188654456518   -1.36092004873832
O          -1.39468227318769   -2.21490076119163    0.11490090449154
H          -1.58463221033726   -2.39564146948164    1.05928821162883
O           1.25295691051126    2.37025024041279   -1.75444912461415
H           1.87984745499069    2.04349304483990   -2.40215795866135
H           1.53732773135026    2.01516436825776   -0.88706005195571
O           1.70810233381714    1.08409277293683    0.58720946049293
H           0.77978372677206    1.01646282510309    0.85147558631158
H           2.04407585774497    0.18352327479550    0.64850323767584
O          -1.12347048446249   -1.90606717000421    2.71447675073181
H          -0.17225208132228   -2.02302030078350    2.60423593189186
H          -1.28513901039616   -0.95769101427482    2.67758257997869
O          -1.12273508955632    1.24301755417400   -1.85945300245417
H          -0.52028616793767   -0.06233909357739   -1.70110899155384
H          -1.45300281617533    1.35452318580265   -0.95895980187876
H          -0.30379698252700    1.80369544255272   -1.92346224586523
