    19
        -40.91836374
S           1.16563290869931   -0.16371165734074   -0.07966903033971
O           0.31259500239761    0.03609391063948   -1.23040187216907
O           1.32284064323811    0.96682287940389    0.77080518780030
O           0.63732744831296   -1.39063625092578    0.69057041869872
O           2.54724860849471   -0.65884634251149   -0.55006203619436
H           2.34885744114977   -1.36859917624757   -1.21191088587113
O          -1.98413990987275    1.02424692377892   -0.11405306329929
H          -1.27851664915623    0.74297351041566   -0.71841628507806
H          -1.66290364132264    1.85963120685488    0.28068664482798
O          -0.48565770672282    3.00242358435185    0.95247015583434
H           0.22259182294701    2.34278116449038    1.04778233066199
H          -0.10384969489467    3.74102035549444    0.47518163455317
O           1.28958018774612   -2.28232451214123   -2.14197701432667
H           0.69682414334429   -1.51176675487606   -2.16264601973407
H           0.85729760901502   -2.95459222153768   -1.60905760012986
O          -1.57035502849869   -0.75774447382323    1.70935679186393
H          -0.24130234130889   -1.16105146068509    1.18681050184149
H          -1.83757728806751   -0.02226458753853    1.07545240227707
H          -2.23649356551712   -1.44445610730397    1.62907773852071
