    19
        -40.92174077
S          -0.03474400476512   -0.78732381141060   -0.42646066260591
O           0.81177187882026    0.32595303271879   -1.01558088487238
O           0.59808538957186   -1.31936461743811    0.76195436387207
O          -1.38574560104050   -0.34738665269457   -0.23624574736995
O          -0.01377018186999   -1.87315142208502   -1.52404834688348
H           0.86128349952195   -2.33188520512858   -1.43366110285052
O          -2.13413055112526    2.21415995702886   -0.58381238378665
H          -2.03341206323466    1.25147749717009   -0.45832701815220
H          -2.40372414172007    2.34288183494229   -1.49469802230659
O          -0.26972761058965    0.75643754659522    2.26628216926910
H           0.12692588060818   -0.06435766607595    1.93064998048984
H          -1.22001787600777    0.64145048624666    2.18296079057475
O           2.20641412452615   -2.88710619459678   -0.63988714555174
H           2.18819750262249   -3.80396562165797   -0.35386846995509
H           1.91055869459876   -2.34789978391842    0.11682682010876
O           0.37700364284263    2.38829067707460    0.27346551371818
H           0.69686928739202    1.26903041993044   -0.48599569061371
H          -0.53359351917974    2.59172060457704   -0.04260634533252
H           0.25175562901536    1.98103892871727    1.16305216223558
