    19
        -40.92218955
S           0.40801585563474    0.79865259818473   -0.73177629717795
O          -0.95035732559757    0.38233265134134   -1.06521396006718
O           0.49843732820037    1.22144690479001    0.66208649652239
O           1.37777978647114   -0.25429590275255   -1.03340827773948
O           0.78138116095047    2.01107057786337   -1.63387122805824
H           0.10234384709021    2.67208825424746   -1.38474743694130
O          -1.47554091638981   -2.08497228446504   -0.46626629150397
H          -1.38677266167332   -1.11778297953111   -0.68297670242038
H          -1.71100708525477   -2.52078396732284   -1.28815208168656
O          -1.30118265784884    3.00450990087606   -0.36902831981494
H          -0.83568727119817    2.73966472184002    0.43538195781821
H          -1.75766969855638    2.20546680410809   -0.66399486353469
O           0.88154567884104   -0.72314367456523    2.33411190746161
H           0.68359349154096    0.07926589786836    1.77999747393502
H           1.71365949791291   -0.54139000171458    2.77620143063859
O           0.91314066031489   -2.25847710198312    0.33078860159715
H           0.91407505364714   -1.78198040800100    1.24969489770388
H          -0.08247041242372   -2.35772091643989    0.06544269570137
H           1.22671568832857   -1.47395108432881   -0.31426999238205
