    19
        -40.92158944
S          -0.33525544726134    0.74919050251107    1.22724863268355
O           0.49350017330901   -0.44352766753991    1.13980685188891
O           0.37425353363254    1.96600806150628    1.51421248705400
O          -1.19495242722596    0.86941990751760    0.04202228350216
O          -1.30962417901664    0.48100051909302    2.44784229566916
H          -1.60364710273318    1.34890058476054    2.70722344002715
O           1.14485570613708    2.17772882363575   -1.02570760664557
H           0.99627641663041    2.23299414091955   -0.06142001144807
H           0.31412843689722    2.44436552446688   -1.42626000611349
O           1.62183767747497   -0.40807235078909   -1.27833424224095
H           1.53470807654772   -0.53178434249232   -0.31266820635793
H           1.64491801337154    0.57289514741952   -1.38129343843564
O          -0.73776014766216   -2.61384427244064    0.34679820995737
H          -0.32126561290583   -1.87224425455306    0.84620084305696
H          -0.12620456697548   -3.35173771162708    0.38963495544063
O          -0.78920762002150   -0.94714749153417   -1.59212024688924
H          -0.88798337575064   -1.75084274138973   -0.97931969310710
H          -1.08565847784248   -0.14934825556091   -0.96834860761449
H           0.26708091330139   -0.77395414386199   -1.63551794035296
