    19
        -40.92079078
S          -0.98094522789920   -1.05708839074713    0.35804859975980
O          -0.76204639387068   -1.46265437581812    1.72249402097276
O          -1.55648600343505    0.28534620797871    0.25614948965734
O           0.18698726922305   -1.19237750766333   -0.50134220595635
O          -2.05885148509204   -2.04063338219046   -0.25495392908114
H          -2.74943211950810   -2.04510440448960    0.40045098020375
O           0.06266218819999    0.09033874972724   -2.78616846791701
H           0.87221584179940   -0.08270731411620   -3.27080642589467
H           0.03919547031106   -0.55294987025520   -2.03890452258578
O           0.79607172101389    0.47006408609237    2.63040988867502
H           0.15432855452744   -0.22685884112838    2.37318718456447
H           1.24505858694449    0.14416333904670    3.41279685083175
O           1.81917174719045    0.78751058905921    0.22169798024633
H           1.48263969324657   -0.08969262562783   -0.05224424803783
H           1.60232270320961    0.83271191892872    1.18239935866674
O          -0.09250640653189    1.87177346226685   -0.95449837267121
H           0.80148514693130    1.58548691872968   -0.44882432250768
H          -0.05141921176585    1.36519536443450   -1.83294461825447
H          -0.81045207448156    1.31747608577111   -0.41694723067169
