    19
        -40.91857449
S          -0.27424643990474    0.23740250364394    1.04193246374629
O           0.76730974970244   -0.85059656752484    1.31028276121307
O           0.24116976114186    1.17076757236604    0.06158307960826
O          -1.54177015625699   -0.33138621001371    0.71807535447385
O          -0.36174926325019    0.95653287779703    2.40342800339170
H           0.47075261231787    1.49070235369915    2.46768794742942
O          -1.39976163834798   -1.71965311595892   -1.62634142233286
H          -1.74117376707756   -1.35143836104598   -0.79536610309952
H          -1.18878778568908   -0.93508137633138   -2.17090770108397
O          -0.73647708549028    0.76984330487057   -2.45190119804386
H          -1.46857905547880    1.38528686849827   -2.52201071947626
H          -0.29490967592331    0.96520163323711   -1.60671652016133
O           1.76518778637021    2.34978665189863    1.88041566929412
H           1.49913217997214    2.04536262670613    0.99360283558368
H           1.69649307827674    3.30785873141977    1.88154953324046
O           0.87683166192649   -2.43125832763300   -0.63760537177696
H           0.79870219630550   -3.33667137819582   -0.32792574952505
H           0.02086472139346   -2.22235312800328   -1.12760024060249
H           0.87101113011013   -1.50030663927483    0.50781738808972
