    19
        -40.92218957
S           0.83793607981409   -0.79803785313299   -0.04010661517132
O          -0.15310751238653   -1.08373323407929    0.99248888312937
O           0.19894863243529   -0.59501209408278   -1.33642610114548
O           1.67549484968201    0.34397041776046    0.32620977300744
O           1.79106574224780   -2.02348564806111   -0.15309416634037
H           1.17403207247673   -2.74432919899621   -0.39762996768920
O          -1.21878069337105    1.03116216400012    2.04728839572185
H          -0.90771808260325    0.16477069499024    1.66911038951207
H          -1.01375010769774    1.00077904946509    2.98431809667538
O          -0.64455205645283    1.82464222084951   -1.73204076045876
H          -0.17943211836613    2.15198035096662   -2.50491614952361
H          -0.40402817482850    0.86233767243514   -1.65297887356356
O          -0.50296447425439   -3.17064411552498   -0.74102354145732
H          -0.81698912096911   -2.77876530548117    0.08461590308637
H          -0.59190633314792   -2.46687073045331   -1.39732489713863
O           0.29516046882487    2.37941031451192    0.54394416193744
H           1.00535821806081    1.59116164502650    0.48627103525660
H          -0.15084109862912    2.32322864478091   -0.38859082644745
H          -0.39392628083420    1.98743499502900    1.20988526060208
