    19
        -40.92120612
S          -0.72233512342865   -0.14250534372998    1.16546269121764
O          -0.63074098038302    1.19219701494740    0.57261968946137
O          -2.05547365111110   -0.67874880819745    1.15725181855670
O           0.30437719745997   -1.02327381076598    0.63274125929299
O          -0.31755789309875    0.05542066403687    2.69801273313063
H          -1.14449210848920    0.22609444986040    3.13883066734773
O          -2.12758995470223   -0.57573614947321   -1.50861136220422
H          -2.87810601059426   -1.09352614699323   -1.80740237240024
H          -2.16537370351773   -0.57669539202586   -0.53260446125012
O           1.18525584626787    1.39058734483523   -1.09480731115862
H           1.91630450403129    1.11051050310151   -0.44997948363289
H           0.35832916591679    1.44506793366140   -0.44463273634581
O           2.50802311667832    0.37499944404643    0.85058222410880
H           1.78495823898675   -0.29302451732165    0.88372803484128
H           2.48695566867086    0.83302714443252    1.69288850670384
O           0.47333837863646   -0.81109525416093   -2.02933226829368
H           0.57091269324021   -1.23108887048526   -1.15389186045064
H          -0.49843805800546   -0.71178590352733   -2.12013727785879
H           0.95165267342992    0.50957569775533   -1.65071850106561
