    19
        -40.92218943
S          -0.53767204158040   -0.36083410534423   -0.95942319040242
O          -1.15155016636107    0.83915534256407   -0.40016412019783
O           0.89575343971775   -0.17113155492653   -1.15799743309835
O          -0.81009756251687   -1.53521721980937   -0.13077783813183
O          -1.18834429778890   -0.64079376478595   -2.34540312223009
H          -0.97131024500261    0.17355670539234   -2.84525711929610
O          -0.17272090149222    1.74560432773633   -2.78945496905770
H          -0.64934164564331    2.01035614811618   -1.99162129880812
H           0.65281980992977    1.36024244226977   -2.46684809436874
O           2.33045152138398   -0.65056004658441    0.94812417814956
H           1.86434436818053   -0.39451169349766    0.10715304590297
H           2.92755283197536   -1.36434353329796    0.71387729962673
O          -0.98665681495980    0.99983059928951    2.18242428292303
H          -1.88765887419741    1.03299842952287    2.51106982906023
H          -1.05313592617941    1.05341286163049    1.19103528539138
O           0.17162884504576   -1.24197816437893    2.11503146431283
H          -0.26892854976572   -0.32826410960588    2.32112453080118
H          -0.29863436858256   -1.50109506572036    1.19754558788549
H           1.13350057740175   -1.02642762904739    1.79956166176156
