    19
        -40.91857451
S          -0.24644355397387    1.06194889136903   -0.16055686840515
O          -0.70261343243352    0.92875201939082    1.29356809149440
O           1.06006642633938    0.45652829150340   -0.31625798155031
O          -1.24202533801334    0.57601872544170   -1.05939424074001
O          -0.10154594154960    2.58851880945668   -0.32471369477948
H           0.72737933238135    2.82412707362997    0.16510260245832
O           2.24200232896758    2.55374146948051    0.79096796341090
H           2.99183122259172    2.88483118065473    0.29025377342393
H           2.12229497262284    1.61916390080203    0.54168028383189
O           0.98534827001323   -2.02619884839493   -1.44126901746339
H           1.11651147950813   -1.17248119437996   -0.99254980290162
H           1.13907436228791   -1.86651565975661   -2.37428054715630
O          -1.61955771088529   -2.10348828778500   -0.71435379533034
H          -0.71394642023733   -2.34732319385505   -0.99182266401708
H          -1.73150962283570   -1.19275496908332   -1.03175159746925
O          -1.36737719145268   -1.44537923614900    1.76960617159113
H          -2.23782122394450   -1.46592557250344    2.17425319015979
H          -1.47514815504587   -1.82421181648918    0.84155243721392
H          -0.94651978434951   -0.04935158333779    1.53996569622656
