    19
        -40.91907723
S           1.37187354923180   -0.76384160316253   -0.56188347266877
O           1.21959933128759   -1.16869170730086   -1.93977481484099
O           1.40805014050035    0.66650484862536   -0.36127265992790
O           0.35120877173039   -1.38952657732436    0.30559779631185
O           2.75686755002101   -1.33935180811469   -0.05561077069750
H           2.86119609141570   -2.17281265972208   -0.50721358136698
O          -1.88682408966169    1.33397512967604    1.47999707009326
H          -2.47027501401421    1.17488105792396    2.22416044209033
H          -0.95183831353140    1.19224728203213    1.80957701136832
O          -0.56633021674582    0.71985973316365   -2.28322515454026
H          -0.01930547678778    1.37521871977871   -1.83098696501637
H           0.05586280494268   -0.02338465214028   -2.44974426042300
O           0.53909723454786    0.63751197788783    2.13112406503581
H           0.48688692243360   -0.32188401413355    2.02885901070834
H           1.01733397497790    0.91399077960931    1.32486450142277
O          -1.80891940388727   -0.37708053362623   -0.37784183912070
H          -0.95826253744327   -0.91758861321290   -0.06596038075820
H          -1.94623700098469    0.34691809818521    0.35622295417983
H          -1.45998430802745    0.11305455185003   -1.22688895185858
