    19
        -40.92343539
S           1.47177364685385    0.63270951569192   -0.52836984416146
O           0.71314172241786    0.98969586546217   -1.72846314878477
O           1.21184092471703    1.54393588890455    0.56551107741403
O           1.26686412796113   -0.75807089479076   -0.15581310201711
O           2.99320125896164    0.76697419225926   -0.91469466133768
H           3.05745596400617    1.67335702704117   -1.19900325282850
O          -1.32462626106923    1.18932347286486    1.09805853952816
H          -0.40747020824381    1.53664710582352    0.98764913593592
H          -1.19694098337032    0.34757985385585    1.58368144089320
O          -1.01735382523442   -1.98257146995681   -0.79146869095444
H          -0.07141282672801   -1.73365120044994   -0.73380190588173
H          -1.26703589277195   -2.22779918425454    0.10631090820367
O          -0.32062651183665   -1.15792213311576    1.93410243560226
H           0.37884459791467   -1.03387001677595    1.25501638627765
H           0.12893521694397   -1.18541122434303    2.77983212655405
O          -1.66125153660658    0.43624221189222   -1.25332447190062
H          -1.56923339155281   -0.58314023264981   -1.15997197314913
H          -1.66906272632615    0.81431947959462   -0.25327721213990
H          -0.71704327602982    0.73165173297388   -1.59197379725687
