    19
        -40.92267728
S           0.35640452853575    0.33158890726147   -0.94761425986374
O          -0.80933853208615   -0.47206638484232   -1.23734650425603
O           0.02593977983357    1.69828686776078   -0.57223780059350
O           1.17148173986904   -0.29863054608939    0.12096038385411
O           1.25319794035841    0.35898077859372   -2.21648124974545
H           1.99596316457561    0.94459529235230   -1.94880187785149
O           2.70806980578611    1.93439473508952   -0.70586859228326
H           2.86302676230062    1.26455701981476   -0.03180078057545
H           1.82346217158175    2.28789067519135   -0.52100218485147
O          -1.82892633307443    1.02327647913418    1.15222864945801
H          -2.53737597662163    0.71102616024994    0.58253973506955
H          -1.17500635501157    1.44749169622837    0.54682322887510
O          -1.50134378066473   -2.54142036450099    0.19322245601790
H          -1.02275282001036   -3.31308972965414   -0.11576759345255
H          -1.34698633334581   -1.83096533328348   -0.47731676102762
O          -0.41981359732407   -0.96573616924609    1.86701773555253
H           0.38249989301697   -0.69938259339176    1.18377299229298
H          -1.04898103540968   -0.15558271790272    1.76376863886251
H          -0.88952103206144   -1.72521478286856    1.36390377443760
