    19
        -40.92453852
S          -1.20383980386452   -0.63001602450975   -0.69003080704171
O          -0.63603933464489   -1.63069534615221    0.20686001724585
O          -1.69453015855274    0.51959654215481    0.06136652361546
O          -0.29188991828595   -0.25264840004406   -1.74930899707087
O          -2.45357161211043   -1.29414835510187   -1.39143383896121
H          -3.04185819429285   -1.52589035331813   -0.67862220502475
O          -0.09699193514810   -0.08565530824952    2.21641518988419
H          -0.84189253771464    0.51901365973066    2.11816426942659
H          -0.30433385354969   -0.81545573826207    1.57862198400288
O           0.17702862166496    2.19352155408130   -0.61385861614886
H          -0.64473222314022    1.71793866063096   -0.33399652859121
H           0.32033640537744    1.88535900674363   -1.51625548107592
O           1.77415616307996    0.91535021965340    0.85869577997476
H           1.08601627977955    0.54367601367470    1.55271278192671
H           1.20924478587723    1.56245197986562    0.26007055103867
O           1.92079373279608   -1.08232574949006   -0.67165470803558
H           1.55102655212518   -1.82574280423597   -0.18072084061620
H           1.18222679073095   -0.81095844034918   -1.27022552956187
H           1.98885022987127    0.09662889298789    0.24320045497801
