    19
        -40.91289200
S           0.69856873964668   -2.14806063575420    0.20000410799102
O           0.28414691923485   -2.11804692880490   -1.26042184052396
O           1.25966292961494   -3.40394823111210    0.54042048637321
O           1.41939879858844   -0.95484997792825    0.53630708743360
O          -0.70229464804228   -2.03584354977122    0.97356351311323
H          -0.97867413937235   -2.94079720329485    1.09406647409070
O           1.52936929854434    1.49605551995076   -0.39520665014810
H           1.54508056457696    0.60942170647538    0.03092196338369
H           2.44570855926886    1.75301708727198   -0.50995850303999
O          -1.97583810945156    0.46867534999027    0.34506731837304
H          -1.54030835379465    1.22778291385335    0.78633898770420
H          -1.70832214502754   -0.31744411193534    0.83242797117567
O          -0.46064436377106    2.54287663786633    1.19826175427612
H           0.32554338268317    2.26672960053806    0.69378793760877
H          -0.72553912920490    3.39746109023941    0.85398930302362
O          -0.47000125657123    0.19003884711969   -1.77624771428831
H          -1.17202194192718    0.32985239131681   -1.08102708012359
H           0.26280645760752    0.77760051670551   -1.52290673445412
H          -0.03664155255136   -1.14052104273930   -1.53938838161841
