    19
        -40.92159003
S          -1.39864025104035   -0.39362596289233   -0.26026829096396
O          -1.82896862047616   -0.57339358141085   -1.62003356749584
O          -0.42203848570939   -1.40867141787287    0.15646436278899
O          -0.91940382745749    0.94134821006081    0.06488398074072
O          -2.67114764777001   -0.60673467086216    0.65999237563349
H          -3.16967144358434   -1.28545656661277    0.21528175421235
O           0.12234170995839    1.21379480018171    2.45141884855456
H          -0.45410333039526    1.17830578018470    1.65189640102528
H           0.34159724609553    2.13717892230653    2.59145682778215
O           1.58078916379181    1.09598362481195   -0.85440747231214
H           0.66450550838030    1.36733740645299   -0.64867427012772
H           1.46840700867495    0.46327783709618   -1.60303474182237
O           0.69328313675969   -0.82336375997948   -2.43774855441152
H           0.88634483734393   -1.70157826382306   -2.10132839478526
H          -0.27063330217891   -0.70979989811402   -2.32493273505830
O           1.61395000558741   -0.39640956401790    1.13911649289236
H           1.78745269030091    0.24925684786931    0.30211933224108
H           1.18467749684232    0.20441306980438    1.83619340804180
H           0.79125812485404   -0.95186281317343    0.78160424306510
