    19
        -40.91841737
S           0.49112164034722    0.75455501136774    0.31458930719223
O           0.68618435346613   -0.19706153267053   -0.76898062217365
O          -0.81346281904595    1.40661308929333    0.20127653760369
O           0.66123387212344    0.10221262499459    1.61600057142538
O           1.58744039989109    1.85336893642980    0.23733918293692
H           1.24480413834774    2.53807544846864   -0.38111100109477
O          -2.00714957370684   -0.89673863777808   -0.18663236067627
H          -1.74333284513212    0.03241633785474    0.01008730051497
H          -1.66516089989163   -1.05754309607316   -1.07112291129178
O           0.06120246887042    3.46616758491118   -1.17120298129724
H          -0.15144984509331    4.29878733301523   -0.74300893132852
H          -0.53892633843159    2.79414163217801   -0.78960016453253
O           1.25155258966139   -2.69362413743634   -0.34094543240703
H           1.08697953842146   -3.18379958740427   -1.14852161259282
H           1.21582580539728   -1.73168510137564   -0.57734958764547
O          -0.44625420376076   -2.07781910099422    1.44975290378647
H           0.06573243851377   -1.14527196314593    1.67612596651240
H          -1.20703426488777   -1.73345687999649    0.85213652565202
H           0.22069353485815   -2.52933796170295    0.82116730938590
