    19
        -40.92071385
S          -0.78808277875776   -1.18971493341170    0.39660165348114
O           0.08845261128111   -0.41324901149547    1.29544003182650
O          -2.18488778544232   -0.98021282069828    0.70122320054859
O          -0.44271969976234   -0.94324332252225   -0.98452327352052
O          -0.47765521665457   -2.70837578387113    0.70368304724795
H          -1.09031329562353   -2.92987637984543    1.39923962854881
O           2.65840975649761   -0.36194816099799    0.52723515909168
H           1.76223061872488   -0.52225377762851    0.88409452109750
H           3.20847807476875   -0.11010798317263    1.27038407482772
O          -2.28044250328436    1.22304250722301   -0.70982148527379
H          -2.14279363790682    0.86579007999997   -1.59209263520703
H          -2.43613255170607    0.43544901750541   -0.13668879514335
O           1.42331009267587    0.82959044123979   -1.51109391282289
H           0.79345012994087    0.07551448854607   -1.58308141678359
H           2.14964499949064    0.47021530994268   -0.95928677627332
O          -0.00638480512481    1.86283566196071    0.22492371513598
H           0.05048398594084    1.03546071167265    0.82931328657056
H           0.67140631228102    1.57023259722880   -0.58899413484374
H          -0.95645431733942    1.79085136831707   -0.16655586848764
