    19
        -40.91339822
S          -1.29332678943100   -0.31424616999702    0.69048417753651
O          -0.85390901462277   -1.21372685151467    1.84135107501096
O          -0.84867285497145    1.02717575018663    0.89231178054390
O          -0.97764189714191   -0.91086592450774   -0.57414579617916
O          -2.85343337988480   -0.34914216769366    0.83849069450621
H          -3.07783093264657    0.26252544512850    1.53659240785207
O           1.09639257354916    1.94292345017045   -0.87963619637150
H           0.51501220997457    1.82274263604257   -1.65020920362325
H           0.49692534998852    1.94036412344920   -0.12068548801001
O          -0.76414114249006    0.89359379270313   -2.63252945513975
H          -0.50729903035543    0.41405889089504   -3.42261183245576
H          -0.95869487452960    0.22641933890911   -1.95451388648588
O           1.76477162042957   -0.58207609672713   -0.49321455728969
H           1.73296179833249    0.39360861057228   -0.66862276019441
H           0.88419228850388   -0.90119994401536   -0.73462732439719
O           1.61402314781920   -0.96930993009578    2.03507052067320
H           0.17975155319147   -1.10598743963598    1.99966432988498
H           2.03858894386484   -1.80768985139257    2.23445909946580
H           1.81233045041927   -0.76916767243265    1.06237241465892
