    19
        -40.91955068
S          -0.07176464698657    0.85207146989127   -0.79394198810337
O          -1.44542089342254    0.18846798107857   -0.58242748839092
O           0.44644604817791    1.25058060943848    0.49440764269689
O           0.78354236873491    0.01657766890774   -1.56924800178376
O          -0.45082564143307    2.11201973381386   -1.59772135195051
H          -0.99744702453763    2.63922412265892   -0.96189055910928
O           1.38295595334444   -2.31330715998601   -0.27827730249385
H           1.72955428781962   -1.89170588964931    0.53332872743109
H           1.39893848812892   -1.60972534478313   -0.94636840125179
O          -1.68822278456358    2.88000463431617    0.55230868371981
H          -0.91697825705410    2.44939003038380    0.95579004517025
H          -2.42820825728548    2.27696409658479    0.66506896943078
O           2.08299039697796   -0.57253118370437    1.66972696219494
H           1.48508250166928    0.12337036486085    1.34364399194663
H           2.96032113381466   -0.18600626877026    1.69103372129107
O          -1.18189661138202   -2.24201668501217   -0.03565823071968
H          -1.53940077327396   -2.77373047393303   -0.75078176218410
H          -0.18092533096088   -2.37778329807300   -0.05681751723823
H          -1.36874094773303   -0.82186439803691   -0.33217615063423
