    19
        -40.91638456
S           1.39178923958336   -0.55177498064764    0.76029834714158
O           0.41366588603763   -1.43897055763849    0.17976122583128
O           2.62434179480489   -0.41224837482492    0.02947898456064
O           0.78850273638733    0.76090000619217    1.07527589233903
O           1.77200098295511   -1.18362860427224    2.16926010651012
H           2.62701172781232   -0.81433843234137    2.37057759918704
O          -1.23990195570183    0.78581495153517   -1.95441819914812
H          -1.50789886835677    1.50709631655878   -2.52730605308502
H          -0.24842626548975    0.79565381231474   -1.93919485255344
O          -2.02740937193719   -1.63188763194977    0.97740201773632
H          -1.06339183587265   -1.73770422459429    0.76661167118984
H          -2.49968480656175   -2.08761649609294    0.27685180977935
O           1.35303320240680    1.16623798982980   -1.66414769720512
H           1.89473796995001    0.48736895296894   -1.21414020466781
H           1.39880923334897    1.92835193910453   -1.07999746068706
O          -1.61578327021812    0.83765953776359    0.56556855877211
H          -1.92438260086684   -0.11506950610475    0.80579168817342
H          -0.57247072491167    0.84903030395359    0.86019588971813
H          -1.56454308336767    0.85512497824756   -0.45786934358954
