    19
        -40.91176146
S          -0.31047365904610    0.10747518692189   -0.39682717725950
O           0.66507027541056    0.12591662076520   -1.45476078761266
O          -0.04250676433702   -1.10779829344411    0.50262814792107
O          -0.39340834198132    1.30443587758561    0.38432608947016
O          -1.70754549844598   -0.19616197248003   -0.97868144538392
H          -1.57283701188402   -0.78221739281917   -1.77448564132980
O          -0.78027043155427   -1.41767384352024   -3.05392513326547
H           0.02402256163173   -0.97430077628268   -2.72673366800156
H          -0.98519908018771   -1.03518733556195   -3.91104961170109
O           1.76908361308439    1.54924907926375    1.99664772230191
H           0.98252571524451    1.67590559776272    1.43721152922067
H           1.45139210370106    1.51524297049005    2.90187210504221
O          -2.58649551209001    0.44377280281314    1.88050304152803
H          -1.85895249623324    0.90462680667758    1.44764777119686
H          -3.02728023460311   -0.05628210338820    1.19148362195015
O           2.43424188720109   -0.68653745668656    0.73647668823922
H           2.38744167407475    0.12891317567914    1.29174695921558
H           0.96253445009431   -1.11009654208714    0.69181592132597
H           2.58865676992087   -0.38928241169055   -0.16589612284750
