    19
        -40.92037977
S          -0.22358940650060   -0.99259296730152    0.36291590744971
O          -1.35103774834464   -0.07841231879320    0.44266558882014
O           0.32663530616171   -0.98186107911181   -1.05202285782397
O           0.80519028379873   -0.74835482221119    1.32284551657616
O          -0.75295298957856   -2.43162035334657    0.53456865109611
H          -1.60878945092387   -2.46535820146749    0.03781581736065
O          -0.30587964723198    2.35455477846681    0.02019997196296
H          -0.98238299684662    2.89409010997914   -0.39395000205600
H          -0.74167775744332    1.52406418961393    0.29313055970165
O          -3.03969245918921   -1.84817058947347   -0.55971845212521
H          -3.80843485983560   -1.99457008229481   -0.00292262188514
H          -2.67073761099208   -0.97906096502580   -0.31407708207888
O           3.05921139962163    0.64399066419607    0.84829648020960
H           2.36231866925243    0.02381184177087    1.13286423114710
H           3.06080614779774    1.35441680444532    1.49328096161992
O           1.62530154572230    1.10465814160586   -1.33062443003158
H           2.33647427833948    0.98215789422406   -0.65494234333499
H           0.91926171796728   -0.09941852779653   -1.25388466907290
H           0.98997555822909    1.73767548251464   -0.92644122752889
