    19
        -40.91864567
S           1.17491655878127    0.05883703998852   -0.07812926900537
O           0.42846186182765    1.28835612841757   -0.20605440302905
O           2.19114541560865    0.02586001710213    0.91486374924381
O           0.14335809909803   -1.08159800870929    0.22750831732843
O           1.70914360991480   -0.34638459727367   -1.45104959205509
H           1.05521420033739    0.03752341479008   -2.14451511736071
O          -1.74390781750232   -1.14519237015737   -1.78306100643519
H          -1.79471600438555   -2.03052709859970   -2.14881325354186
H          -1.19031001669814   -1.20196370138591   -0.98761134437031
O          -0.12151574787981    0.72051981327054   -2.82399285308310
H          -0.85455437506660    0.09314940813596   -2.64215649879451
H          -0.20180291234379    1.41524867177847   -2.15637233864892
O          -0.62694459326232    1.54232637612844    2.25526031080545
H          -0.21397349429650    1.61491586010845    1.37434896547360
H          -1.53717357180678    1.82855455198042    2.15604783124719
O           0.30990277201518   -0.90640558237075    2.72826201459612
H           1.26028493326189   -0.73503759566703    2.71061771416617
H          -0.11113328110622   -0.02050930547598    2.79886255718873
H           0.12360436349079   -1.15767302204132    1.25598422627189
