    19
        -40.92246916
S          -0.53036842105107    0.58340796201527    0.72398849571506
O          -0.83352745050168    0.43783376906443   -0.76524395225294
O          -0.95229614704347   -0.61612000375436    1.40901062423081
O           0.83829100182318    0.95102486575538    0.92701716952684
O          -1.44023500307506    1.75977749335688    1.14002286418777
H          -2.35698553633697    1.40389961131036    1.02556250045683
O          -3.41576492445453    0.14534616038095    0.63849337001351
H          -2.79097271394903   -0.48339527745961    1.03509040451061
H          -3.38755150927191   -0.00378645274155   -0.31079812676036
O           1.20907773678055   -2.01497475510378    0.59466920930623
H           1.92454112386557   -1.56187953973559    1.04781669715479
H           0.38824035048012   -1.69983954231962    1.01027149541741
O           2.69167744177780    0.98279010049507   -1.02068899810971
H           2.14505840869973    1.05415099819098   -0.21517786513787
H           2.75993918494478    1.86791579038156   -1.38249505238170
O           0.97530461944714   -0.88559740499034   -1.78933486635550
H           1.72674374286657   -0.24927362959006   -1.72751338895753
H           1.11996452674790   -1.52019497040779   -1.04597071524095
H          -0.07113643175943   -0.15108520485311   -1.29471988530433
