    19
        -40.91144185
S           0.91910944300901   -0.40243014543212    0.53961214655999
O          -0.12874852062929   -0.48702441440146    1.53140629083815
O           0.84732976978217   -1.53947237274202   -0.39260235487566
O           0.95427107141269    0.86134882562237   -0.16159153193906
O           2.30985593213668   -0.57629485084232    1.27198899558146
H           2.41458586111573   -1.52051388062951    1.34569607463017
O          -2.42136768932017   -0.50467249659769    0.34777892601402
H          -2.99787832691582   -1.09855659978669    0.83338339518776
H          -1.59701858090562   -0.40891955069593    0.89787183228826
O          -0.42956486845199    1.14737935021999   -2.35710468601771
H          -1.04373249526393    1.86453484726081   -2.18211197964376
H           0.21612840144726    1.15127890793967   -1.60950236362363
O           1.63837661683118    2.12082037372554    2.20749382058307
H           1.35235604696210    1.83978146627964    1.33040864853733
H           2.22118259440165    1.42807531615401    2.52256277224673
O          -1.18691964734939   -1.18521890848666   -1.74902890726185
H          -1.82755448645411   -0.97191779357624   -0.96779603170258
H          -0.95234995209849   -0.26516129459110   -2.16182237674216
H          -0.28806119319907   -1.45303685238196   -1.24664266418905
