    19
        -40.91880966
S          -0.34581865943206    0.33474528136831   -1.08257916995471
O           0.57846053774180    1.49204302394160   -0.68171517460062
O           0.27500361306044   -0.91606912203873   -0.69573690426825
O          -1.66312263400042    0.54031796113934   -0.58040551157947
O          -0.35035858989214    0.42859810716796   -2.62011260015678
H           0.51104137920704    0.03544267646742   -2.91745803772481
O          -1.71341365853338    0.38637017661775    2.14273245998955
H          -2.02309478844836    0.47462279972785    1.22719658962644
H          -1.38669652930809   -0.53384726079737    2.20470937179008
O          -0.34287537202504   -1.91208966191275    1.76575875807535
H           0.50452078055176   -1.92608355133143    2.21517312979115
H          -0.15723932179275   -1.67137291108418    0.84121490013537
O           1.82564116221560   -0.96579571753846   -2.83731123452407
H           1.53670682421701   -1.16462705862310   -1.92731133775401
H           1.75343747343264   -1.78131214709438   -3.33964613134028
O           0.47026303661980    1.72062291420949    1.82531308608809
H           0.31043236820757    2.63698270209093    2.06217540929134
H          -0.37635089965297    1.21821898263322    2.05420643339979
H           0.59346328783083    1.60323283505442    0.34379594373981
