    19
        -40.92136408
S          -0.13475481243435    0.28199658763402   -1.35105968323207
O          -0.64560346484304   -0.69555031764417   -2.27968450421421
O          -1.06536658582996    0.65772479695235   -0.31057028082992
O           1.16162952311027   -0.11746453496463   -0.77539072126303
O           0.17237737291253    1.59938097690236   -2.18245459489842
H           0.37646809206476    1.28161223608204   -3.05743632707128
O           1.55980607725871    1.91020792161571    0.93797445115030
H           1.23786602832641    2.70208443125390    0.50380151412535
H           1.57659643771016    1.21497827849280    0.25337480027565
O          -0.30430003366968    0.47578637643365    2.18978312877423
H          -0.83171749258829    0.66564011840025    1.38027140698267
H           0.46424327313117    1.07995481849693    2.08892086962985
O          -1.50501645503649   -2.16595491959841   -0.26898637230894
H          -2.25852539576610   -1.64343805930863    0.01960226755787
H          -1.22893078720589   -1.76956059630790   -1.12641654202236
O           0.54253919865493   -1.60601582928326    1.14720661188223
H           0.18909244905889   -0.77287334704016    1.76343941725862
H          -0.28996697341434   -1.99796362808472    0.69786720500940
H           0.98356355854573   -1.10054533003326    0.36975734319307
