    19
        -40.91597564
S           0.35679867399150    0.81476350842984    1.60757963647473
O           0.74045053949572   -0.40876038763076    2.28946249880506
O           1.19952192860156    1.02843414582680    0.41486854434749
O          -1.04492557514146    0.91400289302929    1.30823271336558
O           0.71407871325107    2.00658539208142    2.58181227974171
H           1.61629869517486    1.81675106627573    2.81977585278298
O          -2.02734735386635    1.30778699035102   -1.08041966179690
H          -1.61587846478606    1.24093473801829   -0.18587470102377
H          -2.94766018121020    1.06957953428663   -0.95265925948765
O           0.23778298275199   -2.38935426260845    0.71771871587327
H           0.33447787261664   -1.67846065801586    1.40786201456730
H           0.73643303732005   -3.14312431561165    1.04016674139565
O          -0.61210566864032   -0.16829842101168   -2.69521056056839
H          -0.26980953261513    0.44422870738999   -3.34945256790156
H          -1.19999929428547    0.37318670649762   -2.09647720340426
O           1.20886013262530   -0.90644815294145   -1.09853149305389
H           0.47705889438858   -0.66778956919354   -1.79298211464188
H           1.27801268264564   -0.03700376512668   -0.46523547515536
H           0.81795190769288   -1.61701416001431   -0.47063596031434
