    19
        -40.92022168
S          -0.12126511540620   -0.91657398347131    0.00864775250495
O          -0.74011648337241   -0.21559065614970   -1.08692746919758
O           0.49513997277952   -0.03935001185634    0.97654260656837
O          -1.11864315095682   -1.82855251229240    0.72259210368320
O           0.90870915364097   -1.90678664360283   -0.54549044914493
H           1.29102125953851   -1.49395236740943   -1.40343895526738
O           1.64459964130034   -0.50327922860884   -2.51658029161341
H           0.75118579454140   -0.21138963899415   -2.73250660537798
H           2.03028074832351    0.21717530354241   -1.96883948240126
O           2.31676176647515    1.19360016256852   -0.56106463649307
H           3.17239876237817    1.12467516151356   -0.13214321517189
H           1.65953798790409    0.85864468316445    0.07870164370145
O          -2.22057930163568    1.45140727267327    0.42262417949797
H          -1.74640302524362    2.28557652655393    0.40579512997140
H          -1.80971761865975    0.89231234380742   -0.26124189987751
O          -1.85070658790128   -0.18672824648247    2.50166787004466
H          -0.95478969197565    0.09825225234219    2.71420174460090
H          -2.19442845349964    0.48238373904064    1.86712069571320
H          -1.51298565835759   -1.30182416646223    1.51033927817272
