    19
        -40.92453718
S           0.34684232008607   -1.41606549983331   -0.44381367059090
O          -0.92131665265779   -1.06897592818767   -1.07442984929961
O           1.41365434278352   -0.53476932183840   -0.90636743174122
O           0.25259042625913   -1.46469036651062    1.00009875840031
O           0.71979452282444   -2.87605774129504   -0.91720920921916
H           0.80891510547425   -2.81289073351527   -1.86372444432315
O          -0.49644806866256    1.97325597002185    0.76365632297427
H           0.37789557490966    1.57622927369833    1.17987207025102
H          -1.23311791305246    1.25132496300278    0.94357833608518
O          -2.05580192818947    0.00755717229647    1.00265395624320
H          -1.80837323759682   -0.44026669464844    0.15526880334845
H          -1.68101354618747   -0.56722049142763    1.68009857072287
O           1.54568831263806    0.72020186673792    1.54672439279620
H           1.13023351919032   -0.17680050999410    1.53380591562303
H           2.15262535721385    0.69791428504225    0.79724546626450
O          -0.04636509389732    1.46913083894305   -1.66339890043023
H           0.64018486534537    0.77439528555449   -1.49611808405680
H          -0.80891921438079    0.96415256961885   -1.96949504000203
H          -0.33706869214902    1.92357506241533   -0.26844596296388
