    19
        -40.92161573
S           0.82328920068316    0.46777491419393    0.49124285409404
O          -0.06336104092520    1.04577087026207    1.47436622208359
O           0.56903250549316   -1.03831583159138    0.42682523158397
O           0.74896902478795    1.05697698350954   -0.81128297881972
O           2.27653765116508    0.54295367499598    1.00382707019806
H           2.22986018406878    0.17208876271880    1.92113785805995
O           1.34503005664880   -0.46124026938675    3.21279628200473
H           1.06559544043635   -1.35227593424766    2.98400763849124
H           0.60738643275443    0.12693061301242    2.98414985794493
O          -2.11867992952121    1.05369480596871   -0.28129875322223
H          -1.75009610329282    1.66088594791744   -0.92794505910153
H          -1.56052498717472    1.14996701669712    0.50856903570744
O           0.03031951739255   -0.33673640550619   -3.00759371702017
H          -0.02998007595058    0.21715147481925   -3.78750172006017
H           0.42829242943427    0.20836649350294   -2.30427373711177
O          -1.40580541195742   -1.40591260420258   -1.01933892482107
H          -0.28554112949245   -1.28928316029988   -0.18636446442080
H          -1.89834228683666   -0.58498372609610   -0.78196074455131
H          -1.01198147772062   -1.23381362629663   -1.89936197098097
