    19
        -40.92139821
S           0.24943254520443    0.93584048608381   -0.72873937685845
O           1.07121938555312   -0.25329533977559   -0.93303463057823
O          -1.16808072111299    0.57888660190615   -0.73077378664083
O           0.61802832652841    1.64484835912816    0.49401940620883
O           0.50409432211174    1.92078870261396   -1.90550192006305
H           0.24498662114863    1.39300463233743   -2.68845435669214
O          -1.88716641143192   -0.43729473764897    1.53231407729683
H          -1.68227227693549   -0.09688099779980    0.61693835047058
H          -2.65919701344437    0.05073597711816    1.82677285527149
O           1.69174745574144   -1.59344493264061    1.20277651587049
H           1.59027206431019   -1.10976744272557    0.34075959246883
H           1.27687866831193   -2.45037547475401    1.08156919006712
O          -0.37170190061434   -0.17161437261071   -3.24613973716092
H          -1.13298852140947   -0.12848749519449   -2.65303741048598
H           0.31059692705017   -0.63445799894171   -2.74081225642548
O           0.38838542191142    0.16760179296965    2.45649974876894
H          -0.58069390896935   -0.12000173478190    2.24874461632928
H           0.98443059752420   -0.60610748063516    2.11375970176887
H           0.55202842851227    0.91002144533258    1.71233943039836
