    19
        -40.91864570
S          -0.88021953245432   -0.46191900375483    0.63481379366575
O          -0.59224445992747    0.94351575880663    0.00248037391663
O           0.28221457496278   -1.28486835114634    0.39648690793000
O          -1.26780893016512   -0.27590075810716    1.98948428948613
O          -2.03791124853273   -0.97221590030949   -0.22195328722940
H          -1.61750981814957   -1.41300275071100   -1.04940402831483
O           2.17997429299995    0.04723330385131    1.76033392864517
H           1.56139649483534   -0.57393080509667    1.33217775150743
H           2.97137651776389    0.06325444790207    1.21838089356644
O          -0.64106754724158   -1.92351306203316   -2.09792023554959
H           0.05196184670029   -2.13860513506792   -1.45902483610132
H          -0.35251866734111   -1.09068828765284   -2.53053652582023
O          -0.00354299989637    0.61810972100961   -2.67229848803918
H          -0.13604027908458    0.87504502320427   -1.74552481092455
H          -0.57792872846298    1.17699142825036   -3.19943481450422
O           0.36211687499259    1.96674268285847    2.08909795397095
H           1.17638320273892    1.41563590379487    2.11155597987355
H          -0.21251618492434    1.51307129142269    0.77412080321415
H          -0.26611539888354    1.51504447280357    2.66716433076516
