    19
        -40.92079051
S           1.13990049371360   -0.58469848444682   -0.75300074954848
O          -0.17271575328240   -0.85815730790688   -1.34159213081198
O           1.84416335485391    0.46760804365080   -1.43876973537761
O           1.03958006328645   -0.39719288539053    0.68769945789157
O           1.98207318337658   -1.91211185447448   -0.93659439480371
H           2.12607568790440   -1.95363304481048   -1.87685484538810
O          -0.76412907204085    1.53887359931850    1.01439619634297
H           0.03480545252299    0.98296408354066    1.11647422830502
H          -0.57877126094667    2.06981545288581    0.20442723783762
O           0.13297905475274    2.47535585905421   -1.28038322871302
H           0.62145397998044    3.28914960115210   -1.41848611423109
H           0.76823549219279    1.74461559894766   -1.44296279573253
O          -0.73354348651157   -1.90293667087191    1.89834524209897
H           0.06589816160876   -1.48754939453897    1.49652774244155
H          -0.69921168794058   -1.70985236542840    2.83738502853580
O          -2.03725456390035   -0.45757712192722    0.23614156369228
H          -1.35367907775807   -0.66018839389155   -0.54034009583917
H          -1.74924510490858   -1.12207833839006    0.94720580345618
H          -1.66661493696019    0.47759362346025    0.59038158991094
