    19
        -40.92217189
S          -0.96008007622975   -0.99211388877751   -0.04764503070391
O          -1.15826599497039   -2.07768412155262    0.86910622481603
O          -1.11078631299805    0.34067013522469    0.50866744619905
O           0.28963010864322   -1.10338751967212   -0.81155854929857
O          -2.11885673008255   -1.09601669603734   -1.14545082819685
H          -2.38009444167389   -2.01212512268682   -1.13512057760784
O           1.18766163158961    1.28528119627532    1.51918739803526
H           0.21640768019167    1.25537872741757    1.46169805440184
H           1.41914260650447    0.38085368794186    1.82619070796455
O           1.25033232252799   -1.36725748669510    1.83703939151751
H           1.80506223300173   -1.83242937623957    1.20633942759461
H           0.34662963482649   -1.69094171974140    1.67487379087660
O          -0.89507719335635    1.92139025641177   -1.56226133897590
H          -1.17594608808298    1.42730413748592   -0.75798137004217
H          -1.34797856290707    1.50760439537098   -2.29959865760359
O           1.44607707508123    1.07787804989457   -0.95645543338433
H           0.65562838244338    1.60514779784903   -1.31261299979885
H           1.47146660957278    1.27553251191053    0.09406022182516
H           1.05904712589557    0.09491504564213   -0.96847787764161
