    19
        -40.91983396
S          -0.03422328841572    0.89399367721191   -0.16265905557375
O          -0.97780596124775    0.05474966585811    0.52653213727888
O           0.53346882358027    1.94282136720539    0.80016832083823
O           1.05431986827053    0.15745304177683   -0.76745470240517
O          -0.74656671965436    1.73793052980297   -1.21824520665578
H          -1.56290935153689    1.20060217803880   -1.53894985063186
O          -2.57340889050798    0.07674081740977   -1.73763822232906
H          -1.96969162782471   -0.59681361227469   -2.12163916295562
H          -2.66728161285654   -0.16713574135134   -0.80832138799516
O           2.32888500817777   -0.91239960643104    1.34609267834396
H           3.25478747639167   -0.66245373444179    1.31790181727234
H           1.93872996300629   -0.61914870586442    0.50102639540862
O          -0.49119742726925   -1.54175392404549   -2.20000235711798
H          -0.43695312702308   -2.37646755627217   -1.72979173896003
H           0.19583182801110   -0.96885529620118   -1.81767891448923
O           0.55742107379754    0.43463123577588    2.82504899500013
H           0.58209518473756    1.49521276503001    1.72271313851031
H          -0.26402665548904    0.00337119556784    2.55885211720849
H           1.27852543584550   -0.15247830677533    2.50404498925263
