    19
        -40.92246915
S           0.97229927920971    0.05123424078130    0.44502874413458
O           0.87868105196545    1.26430790114868   -0.30969701448121
O           0.38589046038275    0.10218993544674    1.76406541524698
O           0.35772182991705   -1.11278337983624   -0.32749216418714
O           2.45558946170612   -0.36374839469095    0.55793511421080
H           2.43498678035870   -1.16615374321909    1.13721210166716
O           1.59255656757534   -2.28087572433125    2.08857268015784
H           1.00020521259308   -1.56671269720967    2.37509416425974
H           1.07430019597824   -2.85088427153207    1.51351397067968
O          -0.53817272514735    1.52039702467616   -2.57980497304571
H           0.04096357687929    1.59024059471645   -1.79711006428442
H           0.03834303975407    1.38645197859651   -3.33393296127193
O          -1.89183504355523    1.23991594420298    0.86652418124553
H          -1.16552351133857    0.86512753596635    1.39369040485236
H          -1.58553867353829    2.10060947320272    0.57010147737276
O          -1.81109015506040   -0.37304526944599   -1.23156809878951
H          -2.10015269578594    0.17609597998624   -0.46255669711546
H          -1.51581117077201    0.27948686815034   -1.91037680899382
H          -0.62341348112881   -0.86185397664581   -0.75919948167181
