    19
        -40.91040977
S           0.09942205868818   -0.43903773318465    0.62242242016807
O           0.45975249998929    0.67596534744682   -0.22986477395247
O          -1.30632173916883   -0.91786308717123    0.18230851790517
O           1.00850707946460   -1.52848096183749    0.64191317229366
O          -0.16688703334037    0.08513702400688    2.04540278688199
H          -0.73725861580807    0.88561466108598    1.93681968180037
O           1.21620995837240   -0.99580161392004   -2.24881792753674
H           0.99857491363205   -0.23507352088579   -1.68752316302413
H           2.08698138482480   -1.28678120466752   -1.96647993126857
O          -1.60580851619837    1.97025835736931    0.94399984759456
H          -0.99094050506839    1.80812063630568    0.21097932898478
H          -2.45393629603076    1.60251028361411    0.68300992769570
O           1.38503652966382    2.90664444424515    1.27025552270306
H           0.50784191645332    3.22961320230286    1.48789913452838
H           1.26543496918143    2.17161309101529    0.65837769461064
O          -0.58829610856447   -2.76049913932279   -1.38500955315338
H          -1.17761766895071   -1.70224688613763   -0.46810076807107
H           0.03078805725153   -2.19964196128518   -1.90996785200824
H          -0.03148287440212   -3.27005094898180   -0.78762406614852
