    19
        -40.92022102
S          -0.21909952176502    0.10208645822856    0.89571529629747
O           0.90356057929452    0.59986306534807    0.13525783574121
O          -1.20854622755562   -0.56248428998120    0.08714169200937
O           0.26168073235800   -0.85594325880490    1.99101112324163
O          -0.83157959808619    1.25162847548848    1.69547481063213
H          -0.71303199692128    2.11026964109455    1.14594841549529
O           1.84665488027626   -1.68477589483317   -0.90837710517858
H           2.78604887726075   -1.73961701981207   -0.72025802409426
H           1.56274490996032   -0.79076967835128   -0.63677954557023
O          -0.37077280024937    3.09813910052030    0.02927878066881
H           0.54510547947209    2.84187082220638   -0.12610680396634
H          -0.88553713911498    2.68769759372438   -0.70264298318625
O          -1.48438095859291    1.41368692724897   -1.72025991591238
H          -1.55633063147104    0.63988641869289   -1.13276149990280
H          -0.95478598940649    1.13117057469792   -2.46913528763495
O           0.08336364033152   -2.98066924070802    0.63038335441395
H           0.77683050243603   -2.72487053349527   -0.01890080175044
H           0.21243904825799   -1.80445713586910    1.60305457520819
H          -0.75436378684198   -2.73271201531024    0.22195606357448
