    19
        -40.92218950
S          -1.11579598049039   -0.07065324673170   -0.30018753778513
O          -0.65052501073121   -1.26710188842409    0.39426087776916
O          -0.82174854395906    1.13107854063861    0.47393854960852
O          -0.55685487848528    0.01391484186075   -1.64930627963863
O          -2.65958455732130   -0.17517989950459   -0.46993891570119
H          -2.96736247856673   -0.22842242895449    0.45882262553469
O          -2.48060717650338   -0.25138229949117    2.15413776170145
H          -1.96085011940269    0.55806568963372    2.06188658297739
H          -1.84936019418626   -0.96802521022928    2.00587500578503
O           1.84758494659579   -1.82283711855259   -0.02060276770458
H           0.90040892333945   -1.66339229154036    0.23989251368792
H           1.86926680359773   -2.69464118129977   -0.42114148726366
O           1.56688916927616    2.06824816194207    0.10377153901617
H           1.45976666761168    2.95743600963181   -0.24082746908420
H           0.65441872778354    1.75681250999134    0.35041618363099
O           1.90380459209666    0.18762356974494   -1.54533109670659
H           0.86158436244537    0.11883291270247   -1.73932849155404
H           1.94017879805460    0.99789612269251   -0.90184636532830
H           2.05878595965123   -0.64827280376829   -0.95449122939864
