    19
        -40.92174064
S          -0.39247922100729    0.30891585835425    0.74453868744835
O          -1.25013950869022   -0.85128178150757    0.62489356235417
O           0.97039996355390    0.01117325746435    1.07447764333552
O          -0.46538545319789    1.14530235527660   -0.51965472729478
O          -0.97526081055132    1.24296667434404    1.82700055972005
H          -1.96047828630507    1.20206161622225    1.71699276398481
O           3.01852154991772    0.60261610944626   -0.56869870404556
H           3.34558985622077    1.48003732415087   -0.36348296003496
H           2.39941314727218    0.36358107636091    0.14702653818425
O           0.57347314882448   -2.15965874514216   -0.88812277392886
H          -0.20043187751311   -1.89097609233822   -0.36607258474286
H           1.30457291912682   -2.20801691723388   -0.26660911463284
O          -3.41221147381056    0.51714158276027    1.30432679016293
H          -2.89161402120251   -0.19077900755780    0.88157633000694
H          -3.91224651718415    0.10941126422842    2.01594019307585
O           0.99361554088023    0.10052589945403   -2.21793080257777
H           1.87486484598417    0.32432920292799   -1.83896053182817
H           0.84619920111442   -0.84445890042988   -1.97678985150486
H           0.13359698654935    0.73710921327918   -1.33045103767917
