    19
        -40.91893387
S           1.57286236448448    0.72113094472884   -0.16475262295951
O           1.47286954271296    2.04487981898891    0.39525352610061
O           1.34458569285022   -0.32516171018489    0.84368966113519
O           0.76665825648141    0.48954366406698   -1.34709687348728
O           3.08131567654078    0.54138767020445   -0.62594193870239
H           3.56436297930024    1.05648560326859    0.01319832698102
O          -0.64269571230632   -1.62670163671031   -1.84087925670001
H          -0.11751926730798   -2.22192399478736   -2.37886634236068
H          -0.12589193348681   -0.78233606993888   -1.77368557441528
O          -1.14712811267734    1.86128867181109    0.12774790174542
H          -1.10983841389620    1.63017619127421   -0.80520380251353
H          -0.22147931437753    2.08096974710873    0.35710399335360
O          -2.19145819367573   -0.09105892104918    1.53598827504179
H          -1.88550693467904    0.69007103040311    1.00167304438940
H          -2.04666799964502    0.14187552534673    2.45516735582581
O          -0.58146199942776   -1.84684904160009    0.68704996118150
H          -0.71488544456827   -1.89079092563188   -0.32840105339554
H           0.30214205576967   -1.25036370497814    0.79007554882464
H          -1.32026326209024   -1.22262288234865    1.05787987994894
