    19
        -40.91724289
S          -1.08978524669894    0.02788857624354   -0.10771410965625
O          -1.53577906038281   -0.83334782602468    0.94743383719953
O          -0.03166831191022    1.00279075861097    0.43923479999862
O          -0.58670111611720   -0.64369378038944   -1.27175159842960
O          -2.22341599230028    0.98390409505907   -0.54337881364214
H          -2.39817167447527    1.55849970341737    0.24103003664446
O           1.91336608456352   -0.37743212453193   -2.19162425882179
H           0.95245458770411   -0.41914544359875   -2.01868662415699
H           2.11192133314863   -1.08357528854839   -2.80889100297354
O           0.61862935940309   -2.40581201414466    0.73479755612715
H          -0.21198495472201   -1.98067663426425    1.01795845040620
H           0.42881290103077   -2.77509967368030   -0.13105988232375
O          -2.01158216321662    2.48861433228759    1.57873693252770
H          -1.90177780837872    3.42547153445739    1.39520430405445
H          -1.12622242665612    2.09842829495077    1.60568372953852
O           2.10259315951644   -0.22722336596411    0.45789371546848
H           1.73963573974453   -1.12156346474702    0.67421554709974
H           2.29642992008770   -0.24137239738373   -0.50696952706153
H           0.95324565965455    0.52334469824863    0.48788689801578
