    19
        -40.91799440
S           0.04710220652954    0.15332873577859    0.99904264450715
O          -0.01217294095854    1.29648302027578    0.12538088314816
O           0.04114634405679   -1.12002739632683    0.08639955655559
O           1.16239898126307    0.09730193044809    1.88753668529018
O          -1.26003881912729    0.00619185866771    1.77254095060660
H          -1.99256420974791    0.43951734134391    1.19157907363045
O          -2.40024970985036   -1.23720275486636   -1.23388625826255
H          -2.91436453108395   -2.02528310818691   -1.04847444995717
H          -1.52436590700757   -1.37034807087178   -0.83771207203559
O           3.45472547015303    0.14449600191186    0.48644634723127
H           2.73063931645390    0.06407138447508    1.13588061060069
H           3.94870367451503    0.93025564483409    0.72835852500788
O          -2.74147981096535    1.09088776328657    0.05043581565993
H          -1.98033011119810    1.60356870364077   -0.25651596363356
H          -2.82604381572413    0.33060645174030   -0.56402376161186
O           1.71791642877662   -0.13390779593160   -1.51182707413537
H           1.29252364431929    0.72904477469007   -1.42428276761598
H           2.52249151128158   -0.09572608011436   -0.94645717904144
H           0.73396228321878   -0.90325842114357   -0.64042156905500
