    19
        -40.91469027
S          -0.65284223072113    1.19927027388085    0.19164461431016
O           0.84822605297427    0.80515011441142    0.23738718791460
O          -1.37353440506902    0.13371987723352   -0.46447583874443
O          -1.08703859828673    1.54910017240714    1.49818693512456
O          -0.65240612172772    2.43393111064060   -0.73435722285176
H          -0.54937674041609    2.08349167118729   -1.65837138347441
O          -0.62901063296875    0.95873710037247   -2.86782345646696
H          -1.33856328958538    1.05643446753009   -3.50789972507140
H          -0.93731021103905    0.32155013061657   -2.19733604159119
O          -0.52549105772145   -1.96234242186399    1.12235011670086
H          -1.09544549823586   -1.37045081050892    0.60967852943499
H           0.17109324062755   -2.23235383579353    0.49759703838350
O           1.59392108116489   -1.79563762945536   -0.62501321946940
H           1.44979957769598   -0.84008993106204   -0.60400679178544
H           2.48483095450537   -1.94707740072934   -0.30350155717676
O           0.81944599042552   -0.20438505810758    2.51892908995859
H           0.15609403332747    0.38985237383598    2.88971436464223
H           0.31923214163495   -1.00428720393659    2.19591190004973
H           0.99837571344932    0.42538698934830    1.20138546011500
