    19
        -40.91790594
S           0.20103134122012   -0.48149550057899    0.88503704823576
O          -0.30847270048901   -0.95273521630986   -0.37736590432922
O           1.61655151260652   -0.24962427912113    0.91144459675065
O          -0.54556308223335    0.76161054709205    1.33221843130896
O          -0.17872935893386   -1.51151421866774    1.99413601348534
H           0.31236135044447   -2.32430981033960    1.75184978750467
O           1.40155421567900   -3.00239400034073    0.51890756229397
H           2.10393239394666   -2.34385472347941    0.56878673583385
H           0.89399615108854   -2.79106610928631   -0.27248061570507
O           1.35659122138000    2.03114286927674   -0.56612665778076
H           1.65828414167910    1.25058966442185   -0.07599857273186
H           1.11415065341440    2.68405353469718    0.09400594038561
O          -0.66657997111921    1.10495840093111   -2.14455363695914
H           0.09161569131521    1.61867071704742   -1.80977734463877
H          -0.48338833420322    0.19631540994719   -1.86163744106853
O          -2.41445379230071    1.24856631325755   -0.24594755102315
H          -2.92655219441580    0.44320683543700   -0.35554325729291
H          -1.38270110222726    0.98914864240836    0.72582613442618
H          -1.84362815683024    1.32873092361255   -1.07278126867495
