    19
        -40.91535451
S           1.31852062976129    0.56281762182976   -1.39809401684935
O           0.12846426766043    1.41375207230926   -1.80759709496193
O           1.88340261774019    1.03524707905473   -0.16917254330304
O           0.98931394039918   -0.83056242723066   -1.45163367427019
O           2.34235808955658    0.85587430029042   -2.55076868681916
H           2.68916368861821    1.72603743870712   -2.36796677727389
O           0.03864209867936    1.13612366297138    1.83671373711637
H           0.84426282193270    1.19374933509868    1.29691495694733
H           0.02624553700572    0.22957553981133    2.20116534159392
O          -0.38056876368831   -1.50266848454139    2.39361195138828
H          -1.14063060091742   -1.67520385238416    2.95195021298892
H          -0.64070945135294   -1.72662305967337    1.48436249827601
O          -1.16272357922802   -1.75020502714978   -0.25895197836976
H          -1.51356711595411   -2.48874704132332   -0.76006677644397
H          -0.31785017669786   -1.49928309766696   -0.69773931193213
O          -1.61317419376493    0.94753910984392   -0.13234230204362
H          -1.08752432899252    1.13056183821459    0.71046090566869
H          -0.69656945040793    1.26419844172685   -1.10682937685483
H          -1.70705605035298   -0.02218342989764   -0.17401705483916
