    19
        -40.92139829
S           0.96328628974851    0.68010539811850   -0.27953728484317
O           0.37351805260089    0.01718315965244   -1.44150148291668
O          -0.07109621294611    1.35975004589423    0.49449195839316
O           1.72358312439995   -0.26009377659301    0.53993469973923
O           1.97755066066897    1.74344465077504   -0.78968770279905
H           1.41413661039303    2.33972296768455   -1.32427294621842
O          -0.23063356073086    2.65146926109651   -1.90369908587309
H          -0.31479332773133    1.75764341593048   -2.26074414096055
H          -0.57528782915806    2.59203563761395   -1.00232906105003
O          -1.29539719176069   -0.08781065620494    2.26893825367754
H          -0.83337088760061    0.57330182925448    1.68847817603929
H          -2.20760811022392   -0.11622221422531    1.97180127392829
O          -0.73904061595646   -2.22180026787799   -0.79403480823330
H          -0.37247329837339   -1.35264033270779   -1.11973337687785
H          -0.38138590376337   -2.89314677630762   -1.37902293885390
O           0.22960940520253   -1.95734922050064    1.52712155846044
H          -0.43669594888521   -1.30495143181621    1.97660671717507
H          -0.21229708146000   -2.22905262836235    0.63464570233456
H           0.98839584558941   -1.29158905141883    1.19254449888872
