    19
        -40.91892671
S           1.33080939463043    0.51819860188933   -0.13797164106774
O           0.91741312671323   -0.09793720315773    1.09840608163490
O           2.02295092550760   -0.36495948482470   -1.05182374732088
O           0.19608764831127    1.19044782993515   -0.79828915937200
O           2.33965186985410    1.67481380612763    0.24270977977251
H           2.78767627240005    1.87871944062592   -0.57302856562356
O           0.26759068259084   -2.22649295716542   -1.49938881995304
H           0.40486762796689   -2.55033648233005   -2.39233036056095
H           1.02293822462311   -1.61400378485943   -1.30551227609240
O          -1.72258715372423   -0.71906709165771    1.55856988093575
H          -1.74015763249924    0.23510004293908    1.79859194579128
H          -0.79636657816058   -0.96727593273625    1.70725192146032
O          -0.88288345240436    1.81098371024975    1.73630291397253
H          -0.05551969987993    1.30129520045742    1.71990219594479
H          -0.91812276277618    2.24652897072989    0.87963424688310
O          -1.56065682766198   -0.55590613303257   -0.93191865219038
H          -1.75743607218445   -0.68574222638906    0.10784671779836
H          -0.89858822468963    0.26127817125050   -0.95043425383469
H          -0.95766738841423   -1.33564447790548   -1.20851819829342
