    19
        -40.91469016
S           0.98086386420887    0.96228861096264    0.14197571400341
O           0.83665121157037   -0.01612676712593    1.19423381425073
O           2.15614524820800    0.87349652422258   -0.65097433691917
O          -0.26738306851022    0.86539101420700   -0.77621634216410
O           0.84112654015169    2.37027000101671    0.75858047401839
H           0.13232055603616    2.29689899564759    1.45082016223905
O           0.42740825445687   -2.24885309623809   -0.37939021965615
H          -0.54159253150047   -2.20739761064792   -0.29069501526886
H           0.76054927766506   -1.66539109483109    0.31814166316107
O          -2.12872065191734   -1.23228203117229   -0.32647137937290
H          -1.71331355207913   -0.35958297141836   -0.33633394214751
H          -2.66522149318703   -1.29092142877734   -1.11947347528008
O          -0.83834868050549    1.52545571298891    2.54618346615007
H          -0.63240714183737    1.64444454116801    3.47677398370235
H          -0.41786944016812    0.69120376340004    2.26696067019011
O           0.72407870948351   -0.68776886549794   -2.45869090271550
H           0.04136492526475    0.28453523566186   -1.59063387010807
H           1.62510817821005   -0.34840607666809   -2.39878216984218
H           0.67923979457954   -1.45725443684177   -1.82600828423305
