    19
        -40.91898063
S          -0.76760572853563    0.40015812915811    1.38470575602349
O          -1.01735443395334    1.14259461724955    0.13674890214246
O          -1.84448187639350   -0.49610175438130    1.71401298537487
O           0.54109265239949   -0.23217989131553    1.33659306012191
O          -0.69161251742683    1.49602124702467    2.52462974404461
H          -1.58818536522440    1.60340663638077    2.83103851034206
O           1.60608438587943   -0.09196107827341   -2.20164717833679
H           1.77152189418757    0.61134012506997   -1.51066001302099
H           2.19312974439348   -0.82136723662291   -1.99224174986081
O           1.74794452072372    1.56007141156291   -0.18685059041442
H           1.46601520388549    0.91593950442869    0.49548236225351
H           1.00257862212001    2.16251357540911   -0.27115322960564
O          -0.63746896360408   -2.28892761443933    0.14858825085100
H           0.08803113428985   -1.84376472217288    0.62521888100113
H          -1.40767093280419   -2.07406658334780    0.70185029732834
O          -0.82270051942324   -0.53748759649425   -1.67536007712742
H           0.15471664518356   -0.38184775359006   -2.00780984714053
H          -0.79768294795294   -1.37187281204932   -1.06362998725071
H          -0.99635151778372    0.24753178640260   -0.98951606672224
