    19
        -40.91892669
S           0.14261715769921   -0.43011451674836   -1.36051121888425
O           0.35029975524527    0.95301322902316   -1.01030031733824
O           1.34899717602407   -1.22702572317093   -1.41913016480782
O          -0.86774625397280   -1.05092808898684   -0.48336133349014
O          -0.49382858869234   -0.44383146677596   -2.80817818054131
H          -0.37414654020590   -1.33836438960226   -3.11334143517996
O          -0.31924381537074    1.90239387741300    1.48112820430203
H          -1.20656090051085    1.93640224152362    1.05722755549139
H           0.28844375017940    1.96603552874569    0.72714025775752
O           2.29047437777666   -1.02099588663506    0.99355592984749
H           2.75407879243332   -1.83609957110598    1.19785968544263
H           2.05279005160274   -1.06879263554491    0.03218107844778
O          -2.22222735614376    1.42158699967054   -0.33227565730905
H          -1.40359875308218    1.39730628212946   -0.85536821669041
H          -2.51287744650437    0.50579259674364   -0.29153569413071
O          -0.07055776009143   -0.56375126119423    1.81445589472407
H          -0.17621295469160    0.49727921341184    1.81512107531774
H          -0.50365172745199   -0.84731644616002    0.89863704853817
H           0.92295103881933   -0.75259000109617    1.65669549629706
