    19
        -40.92174064
S           0.08295372640783   -0.84923514626891   -0.26962392410646
O           1.13536965631138   -0.27228754314055    0.65915737118686
O          -1.15209459133933   -1.07104226708608    0.45253358016894
O          -0.05107989887811   -0.03977120072723   -1.44508910502255
O           0.67129281791626   -2.21902624189704   -0.67171087369637
H           0.49305540815834   -2.82513977708597    0.09336135279293
O           1.19117678641205    2.33222347148412   -1.71525666399641
H           0.71168349506657    1.48523752277142   -1.78862533635615
H           2.05118030560500    2.19310990437568   -2.11521552236259
O          -0.32253693934956   -3.39165175665286    1.42000869920991
H          -0.83503015488205   -2.56273085120769    1.38600237148146
H          -0.94217677843193   -4.10953747213234    1.26677597795260
O          -1.81117362773921    1.55042171182685    0.31327695488587
H          -1.78270378731955    0.59177928134145    0.46801379703818
H          -1.87041018103566    1.66043255205927   -0.63938687720741
O           0.71006833819964    2.15006122104522    0.89366852721241
H          -0.27533907666565    2.12985785319696    0.85596179804343
H           1.00382242499203    0.79289921928877    0.83603413249810
H           0.99194206656882    2.45439953881933    0.00011373027049
