    19
        -40.91833709
S          -0.32342713756468   -0.10018260846261   -0.94374490354793
O           0.28632964889831   -1.28708687704030   -0.40965087917708
O          -1.67205886293379   -0.22046008721087   -1.39660153982482
O          -0.25950958039520    0.99242618832561    0.18067840493953
O           0.55323937653042    0.50851071691899   -2.03525043010878
H           1.51769464621791    0.20615920421180   -1.83403287004280
O          -3.32245792636899   -0.98997154303711    0.57204172828872
H          -2.83617151114902   -0.81294231800592   -0.25651722402050
H          -4.08968559710759   -0.41421962932343    0.56373956194755
O           2.41673707699907    1.55734380600495    0.65394876398108
H           2.65068233689036    2.47217636803048    0.48593451974778
H           1.44982256041250    1.49682248474334    0.59349222725272
O           2.74474660417410   -0.38020897392830   -1.17233534884170
H           2.26347741068428   -1.11684088314598   -0.76868967694203
H           2.89022816470671    0.27495094992975   -0.45687343328943
O          -1.09578735070281   -0.58706833711302    1.95094879981925
H          -0.55552987933729   -1.31824351011117    1.62793797430915
H          -0.60728997565798    0.49528913807916    1.01110583266386
H          -2.01104001430900   -0.77645408882649    1.63386849284688
