    19
        -40.92218942
S           0.81284432021320    0.16701035653878   -0.80710350001561
O          -0.30351457651585   -0.63730300202889   -1.29348999475993
O           0.34140788919751    1.42197080104596   -0.23036552910053
O           1.63469069997560   -0.58155738992233    0.14380866135333
O           1.73498278347213    0.50194099033447   -2.01566143670630
H           1.13073602209942    0.99707914410943   -2.60702845728269
O          -1.41656607204677   -2.11514683214205    0.52294632506576
H          -1.31848526387396   -3.02419263878299    0.23144739952281
H          -1.09197083223224   -1.54871680993097   -0.22804821846211
O          -0.38764581999303    1.23125994033942    2.25054227320500
H           0.17014487671710    1.83530753621165    2.74540928152172
H          -0.18275769225365    1.39155651449174    1.29011166161675
O          -0.50524334115986    1.62168727458132   -2.82329697366759
H          -0.90436233309550    0.76004618070824   -2.64395915761579
H          -0.49279168280954    2.07068472037824   -1.96759682319034
O           0.30000092899059   -1.19454226022401    2.12804862840717
H           0.98829520105170   -1.00048911676422    1.34161051158172
H          -0.03719915164875   -0.24072349836795    2.34656473363979
H          -0.47256596607779   -1.65587192057442    1.61606060489126
