    19
        -40.91966065
S           1.11828870989927   -0.09624004310162    1.29285527088442
O           0.05370040999737    0.87560104987825    1.32873247774261
O           0.64129553916932   -1.46990081077673    1.25185540289571
O           2.05504868223836    0.16307224039149    0.18869445844921
O           1.95465375895535    0.06404237265203    2.61691512081432
H           2.61970478403819   -0.61226040396024    2.53232728047618
O          -2.36091469418484    0.20503153782818    0.17587276563509
H          -1.69545655743038    0.33283129426745    0.87171607969071
H          -2.13956038472620   -0.63340448737903   -0.24545470531394
O          -0.61739219755783   -1.74007492959062   -0.96235943293207
H          -0.46789991926762   -2.61900539092507   -1.31579094779611
H          -0.16488905220902   -1.71471539271226   -0.06961229550855
O          -0.89039122218859    2.11692279658013   -0.89987461628304
H          -0.45082509682359    2.19846219448837   -0.03735538317828
H          -1.68374482095666    1.56755202682507   -0.68714514354767
O           0.62370743317203    0.35621388271513   -1.81172961020625
H           0.08496711886565   -0.48568651769662   -1.66384107490665
H          -0.02061084535849    1.17258497705855   -1.53922139778989
H           1.34031835439370    0.31897359307708   -1.02658424882012
