    19
        -40.92217273
S           1.27429196761342   -0.52549341915924    0.09085837449532
O           0.03929235097077   -1.15340010148879    0.52634634433450
O           2.01212562005988   -1.23205460800602   -0.91656446264979
O           1.05490052608141    0.88862831771642   -0.23900257216444
O           2.19058593187201   -0.50129012168752    1.40172468638154
H           3.07784175932088   -0.62605337578425    1.07834722995787
O          -0.79009302904918    0.36521721772636    2.48586202290742
H          -0.02396924626058    0.63550494885526    2.99557522748393
H          -0.48522347249470   -0.36826705007035    1.90359979802555
O           0.08159005951194   -0.37079194157533   -2.58110075651557
H           0.42623818006709    0.50509038286242   -2.77087762147582
H           0.79588491821061   -0.83350985592944   -2.10828677386427
O          -2.05599604989089   -0.42059162620793   -0.97877209791875
H          -1.47727200027279   -0.40635948433908   -1.77285748065564
H          -1.59144976622744   -1.03202417738956   -0.38021937881584
O          -1.26110773260095    1.58279098626796    0.28272622805809
H          -0.25285940670586    1.41789748058919    0.01500707914806
H          -1.75037735030744    0.81420341493636   -0.27736374617991
H          -1.26440325997830    1.26050301276291    1.24499790939016
