    19
        -40.92019828
S          -0.84410348784966    0.45220995349814   -0.53312312543163
O          -0.32116708512454    1.01876917135910    0.68816047943174
O           0.04529487153117   -0.77466872863078   -0.88388401338698
O          -2.21898200629774    0.07139586109684   -0.48669090665817
O          -0.61298307190673    1.38783646450940   -1.71219337459489
H           0.38636838348366    1.56574733144559   -1.83351187683123
O          -2.54237949482697   -2.00494413261952    1.18839913367881
H          -2.59707357117805   -1.21104092898112    0.62200656205525
H          -2.99743083419685   -2.70470492632518    0.71609192824383
O           1.88520049083133    1.84486577486604   -1.85375764609937
H           2.21064116868996    1.45321725204565   -1.00383908839281
H           2.04554520692545    2.79004704989273   -1.79816293497229
O           2.32045880511072    0.84208790964584    0.54202252479118
H           2.48110536832825   -0.10008038893620    0.63089751897733
H           1.37603367178184    0.98583634806000    0.75830095650973
O           0.06472054988242   -1.63060050206507    1.51453885077471
H           0.15622889986890   -1.26833071996439   -0.00920884969596
H           0.02035229684120   -0.74738019587109    1.90061359285019
H          -0.85783015189040   -1.97026260302500    1.55334025874448
