    19
        -40.91241690
S           1.25297756844873   -0.29248523346836    0.72058889768292
O           1.16157395178881   -0.69975464590130   -0.68218930408037
O           1.27333337943013    1.15353141046766    0.86168496563850
O           0.23471963988983   -0.92858966079965    1.52784132458902
O           2.64244186955011   -0.83112129339580    1.24135597282621
H           3.29194254613603   -0.38537874185369    0.70414308204358
O          -1.36540913670906    1.29136718630092    0.65064409913831
H          -0.40672613762890    1.41208251281826    0.82352234028745
H          -1.68304618393633    0.72856183004141    1.36253781328849
O          -1.56666929968544   -2.21662615680431    0.16604353299362
H          -0.91117467955759   -1.82232479758436    0.79853356500808
H          -1.19662274807147   -3.05614546716542   -0.11411778301596
O           0.46938944814653    2.08654773645197   -1.58554306397328
H           0.94584173410356    1.82677372913130   -0.78389562367816
H           0.04364753405815    2.92253398845197   -1.38784461742515
O          -1.17889986833980   -0.25349896217823   -1.37955772435707
H          -1.50279859746636   -1.09884546297499   -0.88450636912307
H          -1.36570663204124    0.51787625827061   -0.73019118626595
H          -0.13881438812135   -0.35450424977997   -1.30904992156256
