    19
        -40.90561279
S           1.47213793671889    0.98162449745664    0.17854632662459
O           0.45265535182950    1.86504835311051   -0.54555811570016
O           1.27713079770414    1.10523942892164    1.58995838699341
O           1.48989383719354   -0.32057804600851   -0.39778011607655
O           2.84819514965842    1.67295425931828   -0.16487209087940
H           2.99300873959614    2.36039961011035    0.48237966344055
O          -1.22275701406907    0.15760424710599    1.39907242476028
H          -0.32555770128646    0.45562035873793    1.62916104621954
H          -1.82529399640303    0.84585189837572    1.68874853847024
O          -1.44675092126663   -2.70150578391349    1.88600912983433
H          -1.48279571841975   -2.90680569446975    0.94845964637587
H          -1.37021661464091   -1.74229829290962    1.94777913122160
O          -0.98915606681207   -1.36816321961650   -0.88895613327593
H          -0.04762343466449   -1.46417925221005   -0.68362453819548
H          -1.34892734131564   -0.87161240488299   -0.13576055311712
O          -0.32145974270414    0.55186732740329   -2.53510922901697
H          -0.73297612695215   -0.21121432567142   -2.03855108242655
H           0.11095172801532    1.39427897646547   -1.41132004638558
H           0.46954113780723    0.19586807266930   -2.94858238887039
