    19
        -40.92052658
S          -0.21189417555938   -0.33572809567071   -0.73911310722817
O          -0.48584330291251   -0.97817129345086    0.52210647730393
O           0.45824013305934    0.93437531252947   -0.61071981496125
O           0.61623502968162   -1.25099541220995   -1.64549152374511
O          -1.52081891777846   -0.18181106296051   -1.51901353084438
H          -2.26228530299515   -0.02330243867415   -0.82521710054272
O           2.00432340317171   -1.38619055458999    1.45518933898462
H           2.07429857137643   -2.30647284581148    1.71735874264952
H           1.06037376120833   -1.22315956553238    1.26923737224827
O          -1.37972972098251    2.37242694973866    0.72738197485706
H          -1.50769117133628    3.19883916527554    0.25705146880840
H          -0.60646115324400    1.93925321286857    0.31907677965069
O          -2.99738581226291    0.26956921015531    0.47849802189083
H          -2.58727732480675    1.13722445714432    0.69808129648890
H          -2.54934268034260   -0.37449967446684    1.03949235035430
O           2.88335793976805   -0.44673641442479   -0.87877130575221
H           1.60336426361141   -1.01777514566780   -1.48018235892054
H           2.61028774656842    0.47641391791587   -0.81980632933149
H           2.79824871376684   -0.80325972219409    0.03484122809561
