    19
        -40.91398625
S          -1.27556759861244   -0.34293561717604    0.99876170830170
O          -2.33599712373825   -0.77256720564819    0.14232745597936
O          -0.11937985224341   -1.24619424549109    1.02733491176106
O          -0.81263822869424    1.03220287824481    0.76247482941420
O          -1.84426945991598   -0.32011121630227    2.48150571411888
H          -2.56729645424440   -0.94112957955995    2.49843680248511
O          -1.22494296295769    0.69638221606944   -1.90489664838361
H          -2.01009589258012    0.14632316471846   -1.80836766958437
H          -1.11689711087646    1.10293067015780   -1.03138215768573
O           2.53539962812816    0.58489354815649   -0.87102139666954
H           1.94485741601988   -0.14675523558949   -1.24477258112973
H           2.33809052350584    1.37676312761670   -1.37686218261882
O           0.73530109851731   -1.11129332108471   -1.56962331698823
H           0.40998802615790   -1.44317801412700   -0.71723151907179
H           0.02875747246899   -0.51996162049798   -1.90842927308324
O           1.52032916763210    0.57832184035416    1.40586294987021
H           2.06135176467573    0.63182859236751    0.47804410638657
H           0.61869129544897    1.05498455239494    1.22360051863878
H           1.11431828130511   -0.36050454462723    1.41423773826266
