    19
        -40.91790594
S          -0.08656364399490    1.01129721490171   -0.15386672490369
O          -1.38207553949505    0.65812709502880    0.55291179382307
O           0.99674919094126    0.19769017052426    0.33575852982252
O          -0.26857143045993    0.97491287001070   -1.57641422732921
O           0.14782895500033    2.48487699671271    0.30354892622239
H           0.96799709123992    2.75720916373303   -0.15870964105265
O           0.25658108814777   -2.42759664941516    0.55186618412612
H           0.85973875879016   -1.68140686692769    0.41534960887554
H          -0.34363802200564   -2.39564558941523   -0.21595777217413
O           2.23579730706823    2.16124190366674   -1.25589147192618
H           2.48887745391442    1.36090323140889   -0.78262560788416
H           1.67321544799469    1.87374043978382   -1.98411745686027
O          -1.35420947811154   -1.52743604046360   -1.45766367959874
H          -2.26633613781292   -1.34904432484773   -1.21893595139010
H          -0.97010630744832   -0.67424144653885   -1.71264536356176
O          -0.94315062303680   -1.01272194869929    2.35165542134719
H          -0.22032905961366   -0.68289060158269    2.89167012666837
H          -1.24928726713792   -0.01181780931267    1.36164632751572
H          -0.54251777397891   -1.71719781857102    1.75242098827845
