    19
        -40.92246921
S           0.86293076128368    0.56974616320567   -0.27490470564146
O          -0.09112418447988    0.88423157756493   -1.29492657186506
O           1.61640969896015   -0.64335135460629   -0.49185159751377
O           1.83709333603653    1.75607912224651   -0.10639559244817
O           0.18654904305678    0.49673441353684    1.09154260410251
H          -0.74194182361207   -0.09251034107487    1.07136926840413
O          -0.58794024768390   -2.07917242842894   -1.09829859180598
H          -0.87251103706198   -1.67704911482413   -1.92283474991968
H           0.31418886579284   -1.75219916504529   -0.93933865975014
O          -2.75072287259102    0.93879154416513   -0.90337219425467
H          -1.82428599239904    0.99303819990352   -1.20582867381721
H          -3.02570448552362    1.83583747207508   -0.70675354456438
O          -1.87160450099641   -0.83723467479799    0.85698638985417
H          -1.52838368224578   -1.50836569524675    0.21817011028097
H          -2.42462857027895   -0.22907563648283    0.31106688868315
O           3.08874527625143    0.22809329076439    1.58461068206863
H           2.49052464794618    1.43459100392458    0.56426524959592
H           2.48474246591758    0.11792833050917    2.32432646117284
H           2.83766332161367   -0.43611270738154    0.92216722741563
