    19
        -40.90762807
S           0.70154787895106   -0.54044211769792   -1.26989050962190
O          -0.47340222289231   -0.11964513128340   -1.99649949498917
O           1.09368686621422    0.61832349133299   -0.30294268265626
O           0.59184665389616   -1.75685150385088   -0.54389158943044
O           1.90522227770776   -0.57678297142931   -2.22887266522439
H           1.85719365816228    0.27459968598251   -2.74062968009420
O           1.13418075605350    1.72468162298476   -3.13601905899270
H           0.26219988668150    1.32940141820711   -2.97568950407341
H           1.27599492912621    2.37485584671100   -2.44251541005065
O          -2.15896281308087   -0.52876007426604    0.08457670145941
H          -1.71755132697735   -0.32302033883163   -0.75730065583171
H          -2.48171109973578   -1.42937878604869    0.00469433268691
O          -0.64471116027984   -0.15623793026314    4.56476960328880
H          -0.41856577393933   -0.16097947976152    3.62500028986803
H          -0.79335966159970    0.75996290404090    4.80331508004342
O          -0.10543971191085   -0.32517371636750    1.75181996843500
H           0.71103115850857    0.39717777675093    0.60393922770123
H          -0.98656743326978   -0.34443939858872    1.30386422308481
H           0.24736713839259   -1.21729130759560    1.65227183438572
