    19
        -40.90805042
S          -1.20249958543403    0.17063521645579   -1.05668386171590
O          -1.29892201159786    0.43763441533460    0.44360390977046
O          -0.42647640703312    1.19960482617503   -1.68148350087095
O          -0.81822545730422   -1.18153696549221   -1.29154866487143
O          -2.68805521193290    0.34785103824300   -1.54319513242259
H          -2.82827666602393    1.28590354121852   -1.65230505489859
O           0.73831627301444    2.08965052310492    1.82552100992835
H           1.32286578498661    1.65875299539965    1.18959756376995
H          -0.13863618263336    1.74273669953145    1.64500873156051
O           1.92081222377156    0.81979407788436   -0.46022035712093
H           1.11953294982578    1.04203403434319   -0.97174385396696
H           2.64504293621366    1.31251549453741   -0.85209959146636
O           1.47488032481574   -1.83931415072106    0.07818571866859
H           1.87077383211779   -0.95366920696062    0.02279556910279
H           0.87938060388008   -1.89627646892446   -0.68249935628539
O          -0.62699303452269   -1.65662809665276    1.58879194498717
H          -1.17600252705808   -2.35942558683771    1.23021791371947
H           0.28001138624194   -1.78074352581868    1.17455972247312
H          -1.04752922127395   -0.43951887082820    0.99349730964231
