    19
        -40.91440018
S          -1.46881336541029    0.18506855121386    0.80289462663592
O          -1.31617647393067    0.41071783301842   -0.64747578613918
O          -0.58064266678306   -0.88797725182697    1.22933306434847
O          -1.39986246684325    1.39069005582970    1.57469903235957
O          -2.93658068011210   -0.39612938341240    0.98208822111404
H          -3.50592812672568    0.35512266754922    1.12581769416208
O           1.26081033043033    1.32294166687051   -0.85388946579231
H           0.29350957745619    1.24662668585355   -0.89634200176117
H           1.46502080700858    1.41795866977305    0.10254741181966
O           1.99260792463583   -1.00278385145175   -1.65391704360309
H           1.83851621859505   -0.05243086650207   -1.33864435485888
H           2.20519440395495   -0.95112080013546   -2.58790572597436
O           1.27228314312307    1.20031953300783    1.81862143279417
H           0.35177934954094    1.50046364164422    1.90747807852365
H           1.24688294229821    0.26413613860884    2.03692982624612
O          -0.29923657666796   -1.79182786391020   -1.05641319198759
H          -0.81560790535084   -0.89349851450471   -1.16542152565715
H           0.70285101820869   -1.56712141286022   -1.34811342387181
H          -0.30660746343372   -1.75115550881217   -0.03228685834806
