    19
        -40.91743361
S          -1.30574596729252   -0.06612540089338    0.38545530765371
O          -0.62102211628558    1.18357089639070    0.16314703792732
O          -2.48131772530184   -0.28595036596762   -0.38897563337964
O          -0.27631459803451   -1.21293037271370    0.11494593597448
O          -1.59658481051300   -0.24196206237938    1.87563354813964
H          -0.78208663689778    0.14255400428348    2.35232921664526
O          -1.19157684964118   -0.21330447496711   -2.79160791091016
H          -1.76843463251617   -0.28432061136659   -2.01208673001841
H          -1.76089546434710    0.02763834375321   -3.52506166859306
O           2.33048362874427   -0.51442722689949    1.11769801621961
H           1.95154958426513   -1.39657584421990    1.07977194327594
H           2.36084682594804   -0.19225897761567    0.20944585804101
O           0.55684814078243    0.88156772368813    2.63065634803283
H           0.40243799322175    1.61786530002194    2.02715480477036
H           1.29859930011973    0.37391371408434    2.23636675738225
O           1.16892216225280    0.15206937171619   -1.52162319944415
H           0.36107680016898   -0.86859073858999   -0.57892833193119
H           0.61583656627880   -0.00047368127779   -2.30623712617975
H           0.73737777841284    0.89774039400497   -1.06808416342382
