    19
        -40.91940418
S          -0.63643280868180   -0.30968955054260    0.80042542650087
O          -1.05248832767396   -0.51359032552633   -0.59180968240288
O           0.64040529587426   -0.93553558533660    1.07323965889187
O          -0.61465759798032    1.11926280465679    1.12965490379974
O          -1.72496778123708   -0.94227876415329    1.71376737906308
H          -1.86868597468798   -1.82840091499574    1.31996392056174
O          -1.94506488808475   -2.92477114425517   -0.00518212026893
H          -2.80529128253508   -3.08216704921375   -0.40161051111291
H          -1.54248205968789   -2.18078145018868   -0.49366739369303
O           2.77573614151584    0.40324475757204    0.52854183199068
H           3.24748598743114    0.49374069095702    1.35917103294722
H           2.02627815744307   -0.22956774959317    0.70730555979210
O           0.09359415425948    1.18920575148965   -2.19379853665977
H          -0.62058024034030    1.67273057537458   -2.61432767190339
H          -0.33587603268649    0.46529430752242   -1.66717935458177
O           1.17547404661722    2.22605735577720   -0.15018661800694
H           0.84540634516317    1.92865040545513   -1.07771822015931
H           0.38579250033704    1.86492853647248    0.47561491215423
H           1.95635437495597    1.58366735852897    0.08779549308340
