    19
        -40.92315432
S           0.04526137369065   -1.59877816370684   -0.56930935255354
O           0.91731611283072   -0.53083249883593   -1.06213885255035
O           0.36077868698676   -1.90122790136606    0.82916560261413
O          -1.34444505786632   -1.30967968057086   -0.80040346641511
O           0.41202745055651   -2.90333489323816   -1.37155287283623
H           1.19239042934418   -3.21105119783132   -0.92111758597050
O          -0.37951931184958    1.77277214997018   -1.32466878130963
H          -0.82127359791768    1.88047740037275   -2.16814148495282
H           0.07798299352798    0.90363410510005   -1.36650898580730
O           1.75821713304222    1.32334450282484    0.64045661228337
H           1.68556955929855    0.59639187363580   -0.01655387450251
H           1.39131429070070    2.09636547880943    0.19849667731214
O           0.01527140869460    0.20101521850988    2.11118647386188
H           0.16629629541653   -0.75418732597543    1.71636990871888
H           0.77498492948678    0.74772973917776    1.68410887489433
O          -1.91100350885436    0.80344687187415    0.64853262937978
H          -0.87717996291384    0.52009667557791    1.61637407507978
H          -1.50015776072597    1.41205681111083   -0.00251063897804
H          -1.96383145343806   -0.04823917543019    0.15821504171995
