    19
        -40.91908977
S           0.71113879237054    0.34341045476143   -0.91080424887919
O          -0.57941376328187    0.86572380588475   -1.31745679623511
O           0.85606899450189    0.48736258868207    0.56861557080714
O           0.92529237647091   -1.02533314158394   -1.31199553576417
O           1.83431631365747    1.21248508163435   -1.53903815906151
H           1.75487306048917    2.07083628445350   -1.07309094929395
O           0.05225018212115   -2.97398222003196    0.15359215363426
H          -0.60594264332892   -3.41455300271993   -0.38894228025740
H           0.51560967932123   -2.33334504514422   -0.44747770038481
O          -2.52534477733026   -0.23505097912408   -0.06319602685692
H          -3.13058078229268    0.47080276656510    0.17402930577502
H          -1.83869504004427    0.18374149555238   -0.65957640855676
O           1.49059311658060    3.04043160643381    0.33293597580131
H           2.28754239996225    3.25983776713177    0.82127724595879
H           1.16425994757229    2.19406612212043    0.69363972952864
O          -0.78797289643391   -1.06166043020044    1.56844623892178
H          -0.47880167168412   -1.94940554424237    1.12913484502525
H          -0.03514509901172   -0.37559470766647    1.25442936006964
H          -1.61004819963794   -0.75977290251001    1.01547769978196
