    19
        -40.92218956
S          -0.09800254545809    1.13339495625218    0.21521087992130
O           0.22745267853781    0.36498592195204    1.41245582317401
O           0.84695183963855    0.85115213327522   -0.86061810267654
O          -1.47732820863259    0.89754410144707   -0.21117270330269
O           0.00054294257459    2.64680897798621    0.56566176739050
H           0.93709700946312    2.73581408557608    0.83951620606648
O           2.47040126371165    1.89557590727626    1.07643259378780
H           2.45283672742600    1.52559252629680    0.18384934752089
H           2.06376424080072    1.21784621251944    1.63239673423583
O           0.25494066360263   -1.24815664947051   -2.26239978911876
H           0.13474137888607   -0.94732264850141   -3.16570019099044
H           0.59224842265046   -0.46258051069102   -1.75318163343305
O          -0.75143611449960   -2.03577161956789    1.42699505298991
H          -1.32685566025518   -2.09040626095687    2.19302870250586
H          -0.29217998680389   -1.15521060044172    1.48989886631615
O          -1.79228612932125   -1.47811850560394   -0.80398943384061
H          -1.00814869229228   -1.53990077674385   -1.47703413568010
H          -1.43386648797299   -1.87304826794423    0.08303610257681
H          -1.80087334193362   -0.43819899266361   -0.58438607742967
