    19
        -40.91596563
S          -0.22694363457718    1.64667310369241    0.51567569534493
O           0.46360346158268    1.93621326182276   -0.71839457425882
O          -1.66098593249758    1.49605353690585    0.35731614496963
O           0.36017070695797    0.51250255994744    1.24161382106262
O           0.00691911153287    2.88739744160357    1.47466777673729
H          -0.23041586298263    3.62411343313566    0.92034747422408
O           2.40678381954691    0.18723213899393   -0.56061666981020
H           1.78286461937521    0.89852454516458   -0.82579708097449
H           2.31715422381959    0.16675149934802    0.39882653843512
O          -2.56755307368158   -0.75785718092578   -0.47942333206899
H          -3.41002845414540   -0.88485636578147   -0.03785852432585
H          -2.28215001828100    0.17378291719980   -0.26444570442066
O           1.24445396344961   -2.03965248421677   -1.23189114696614
H           1.89297830632356   -2.73932836687773   -1.13459219938747
H           1.73524685957999   -1.17459056541011   -1.10028084121478
O          -0.49051053787159   -1.72081036407102    0.57064625938436
H          -0.13865769954606   -0.80353655644759    0.95059290962848
H          -1.38532481846058   -1.46038116476579    0.11406541163181
H           0.18239495986870   -1.94823138932476   -0.19045193800183
