    19
        -40.92123229
S          -0.93349178331313    0.74604363568316   -0.19750508779146
O          -1.72295603730039   -0.43869515841628   -0.28914733555019
O          -0.02600473855052    0.97004471555561   -1.30495273090552
O          -1.85391396211129    1.97424556708446   -0.04051959235241
O          -0.11586472829471    0.76964384520357    1.09398245639141
H           0.43770922277589   -0.15973807288429    1.24036197080313
O          -1.12993263595108   -2.77110914310022    0.91793543990844
H          -1.53617350185059   -1.97549755862508    0.52649082245888
H          -1.10338203634822   -3.42622101006586    0.21718287404886
O           1.08936410448731   -1.37916075571931    1.24387521883774
H           1.41059329856431   -1.44674436241405    0.31657019858304
H           0.33488625391983   -2.01829284617122    1.30185340269724
O           1.49856673128352   -1.22864945856796   -1.38471926384881
H           0.91243419710463   -0.45604551925454   -1.50349533689711
H           2.29510743657088   -1.04797714391915   -1.88771478352386
O           0.34537203269617    3.36523193196032   -0.12706545766193
H           0.78912216825166    3.10520910024141    0.68540799977862
H           0.53999649846527    2.67543306578247   -0.78198069785561
H          -1.23143251039772    2.74227914762533   -0.02656007712136
