    19
        -40.92008989
S          -0.50497629897204   -0.29525739387195    0.55788391445621
O          -0.74642424755442   -0.49254756635387   -0.84433633282618
O          -0.43934527315104   -1.64489729376639    1.27827464946097
O           0.69547049416272    0.46157318751355    0.84326219707007
O          -1.70768624467453    0.39261642102071    1.21001565139790
H          -2.11970354186686    1.00163808520310    0.48888314652681
O           0.06071849574487    2.87297620202067   -0.20208542283997
H           0.18392601874177    3.53686245772366    0.47953021007302
H           0.43806613328714    2.04507403692688    0.14710183774626
O           2.60629613619073   -1.22413982436649   -0.06122608688341
H           3.23265369422579   -1.37537795425395    0.64964996734682
H           2.02120287055342   -0.50326507904690    0.23477003187658
O          -2.31367643124970    1.80057424901101   -0.78948426058777
H          -2.04437916483996    1.10787733382507   -1.40626213329987
H          -1.53688090457384    2.39841899736417   -0.71312589358284
O           0.61167211432692   -2.90595804893610   -0.63276571387093
H           0.12919424278470   -2.38745904848759   -1.28941541021420
H           1.48945722335457   -2.47082067310657   -0.55026140259327
H          -0.05558532653637   -2.31788806841552    0.59959105074394
