    19
        -40.91039632
S          -0.61552564394452    0.76038146811353    1.66910063438251
O           0.15632260201306   -0.29694935235881    2.29024856093007
O           0.27479180573160    1.72350903147794    0.98562078150369
O          -1.66590334336090    0.30406781929739    0.79511516623422
O          -1.29698840506370    1.57831394324893    2.83093624606406
H          -0.58339701780948    1.73209355266115    3.44324491848593
O           1.41760192066773   -1.43509240827200    0.34227546049950
H           0.91856091703415   -1.09574660730043    1.13118147956682
H           2.26772708132141   -1.73860750072415    0.66661140804264
O           0.34036251533650   -1.90915051402383   -2.27182028183142
H           0.50056348835325   -2.17676340488147   -1.36186226540105
H          -0.51157681632642   -1.46300516139415   -2.28415915980094
O          -1.32839492446685    0.36684741954172   -1.77590476382426
H          -1.84352452285014    1.09204035271201   -2.13355369393704
H          -1.57418769452695    0.29253312906396   -0.81811706488585
O           1.11892469484252    0.69372934935806   -1.06877837811882
H           1.37153679596168   -0.21694293307531   -0.69705486850448
H           0.24486405111047    0.54689537145999   -1.56793923471434
H           0.80824248603643    1.24184644512058   -0.17514496464504
