    19
        -40.92123229
S           0.21519729124485    0.28463306808892    1.15737373018002
O          -0.40103989682769    1.46426333228027    0.58395491049596
O           1.59273551089853    0.10155422794525    0.83463111224122
O           0.03911574362288    0.31534290316482    2.68983103729208
O          -0.61746399894681   -0.92963645270284    0.74611580371122
H          -0.42598901117779   -1.22141445646493   -0.28837922722533
O           2.50582086030781   -1.49732409371928   -1.12986908257821
H           2.33902751468290   -0.98346572410886   -0.31783871632646
H           3.04357389367598   -0.93559500417157   -1.69223195933653
O          -0.08823794654241   -1.42381062354003   -1.61353380800035
H          -0.11655234979271   -0.51039289288321   -1.97758640574059
H           0.87511464883231   -1.64588672800775   -1.55133201204974
O          -0.03089326302901    1.20339619304673   -2.05431777419837
H          -0.09907349238031    1.43595939993080   -1.10783115722112
H          -0.64074597902821    1.77742802611549   -2.52193093150715
O          -2.46833413188201    0.79375758460063    2.17690030928821
H          -2.75879540307930   -0.02701777290078    1.76859565718430
H          -0.92637583949699    0.48528231290075    2.81852180823094
H          -2.03708416106849    1.31292672041162    1.47892669555329
