    19
        -40.91940420
S           0.45864085676497    0.75176522817210   -0.60494584571317
O          -0.57516940470022   -0.12432563022012   -1.16765883037841
O          -0.02028906146316    1.46236056424233    0.56208302551328
O           1.67584149316160   -0.01031382267110   -0.30702580029989
O           0.85548608450304    1.77716829114737   -1.70485475172820
H          -0.00694753727373    2.10077814102202   -2.04067388037662
O          -1.67175458266517    1.91376022677961   -2.42980788542194
H          -1.57143375297520    1.07340820600655   -1.94177608841454
H          -1.88897630088358    1.68271198049903   -3.33604779044430
O           0.12832005284784    0.26425101667483    2.84030271994348
H           0.67819083046238    0.82131695912735    3.39530284957029
H          -0.04511262023027    0.78989521694548    2.01098907193219
O          -0.71447744948251   -2.39038136226995    0.10800690463040
H          -0.53756459412005   -3.06926462306419   -0.54656701285020
H          -0.77332687157709   -1.53429744614522   -0.39124823255659
O           1.22360252515938   -1.58726710271108    1.52994589688851
H           0.43496553484824   -2.06322493865728    1.07296370138733
H           1.55370824177921   -0.93583714414408    0.74694976294535
H           0.79629655576095   -0.92250377072751    2.20406220534689
