    19
        -40.91624662
S          -0.04637383377774   -0.83651362293648    0.37718111489315
O          -0.10082752798301   -0.21543508987300    1.66185618210620
O          -1.27215239769914   -0.82171517387513   -0.38210760000297
O           1.06283717890252   -0.18901867380428   -0.47315611300927
O           0.44437063944810   -2.28838823271450    0.54809845868321
H           0.18623877797050   -2.77559071373621   -0.27784755071292
O          -0.72735106525756   -3.09440161389901   -1.61885878182045
H          -1.38679850572641   -3.78684263766743   -1.52873841757026
H          -1.17589780205802   -2.24592380797778   -1.44445160579574
O          -0.60507119415707    2.51670606267824    0.91420174545882
H           0.32168766166719    2.59399623013736    1.21125205612553
H          -0.94078468052623    1.74548645046685    1.38491941957573
O           1.88646596129665    1.70192368237664    1.65499261659779
H           2.40589989044015    1.40147470629496    0.90563760848408
H           1.33553691803231    0.94825070335040    1.91596999349677
O          -0.35015637339230    1.58907051081496   -1.52021902558897
H          -0.49125328962306    2.12318823961227   -0.69075062114083
H           0.60160424845176    0.57348121344127   -1.00904575453963
H          -1.14797461600936    1.06025176741291   -1.62893373528230
