    19
        -40.92246911
S          -0.61101816224317   -0.11266918257570   -0.87059610565099
O          -1.38959003564013    0.73192465932726   -0.01601958976663
O           0.37709753587069    0.56973007579458   -1.67337289588779
O           0.07698637608198   -1.20939943949240   -0.06202274388481
O          -1.55616841432518   -0.91468829054753   -1.79156119081781
H          -0.94220986736528   -1.41845060243267   -2.38273545862775
O           0.61560246642755   -1.80946237873303   -2.90659705260016
H           1.04482178286421   -2.34637286549377   -2.23453039976052
H           0.88576772439828   -0.89161031030470   -2.74029331642399
O          -1.31830376885337    0.62841659859163    2.66958770623085
H          -2.02283543857272    0.05986758797009    2.98460465433686
H          -1.48545966183050    0.77623239942549    1.71936018349910
O           1.30501560742326    1.99961886693454    0.41999613269510
H           0.55416038971073    2.56036543724077    0.63045883161170
H           1.11453544602705    1.61553742660949   -0.45298492855335
O           1.09692018720859   -0.16932013052350    1.92492382561767
H           1.39739820096129    0.67153336167109    1.50178519409679
H           0.29065800897055    0.07962369752812    2.43657741575632
H           0.56662163284594   -0.82087691106047    0.84341973811035
