    19
        -40.92343666
S          -1.48697518768425    0.79064216327764    0.09338094137622
O          -1.30428830890191    0.81732529507470   -1.34208187989999
O          -1.22141970287491   -0.51968004701782    0.66567227160122
O          -0.71502100659929    1.83948807583815    0.76145921464902
O          -3.00278465084527    1.10246411696924    0.38834483830380
H          -3.11520116237904    1.97005551180206    0.01253617079349
O           1.13879008407735   -1.01738067535331    1.80711721451062
H           1.37643387417779   -1.76755033843352    1.25106796133835
H           0.18019573662191   -0.88184226999120    1.65588216338796
O           0.32815601974130   -2.10848254310746   -0.79129576404454
H          -0.35827998464041   -1.60138498749000   -0.30407696833069
H          -0.14173884516418   -2.67182415263025   -1.40765355842200
O           1.23188180034390    0.26442492483861   -1.66792744721040
H           1.13461014926942   -0.69800861373885   -1.51017604778444
H           0.30149460790995    0.58289049872750   -1.75095284783537
O           1.67103562150037    1.16655151052327    0.61315810626831
H           1.63229986388861    0.83092756074088   -0.40113841187163
H           0.72211704575203    1.58727293462099    0.74095240643011
H           1.62869406582602    0.31411102530119    1.18573165671934
