    19
        -40.92079118
S           0.79492844535181    0.97218652151782   -0.79451468930080
O          -0.33186708078212    0.38272355268652   -1.52038242179998
O           0.53260332786396    1.01151590017734    0.63746026016978
O           2.05522957259536    0.37181822413845   -1.14868927436082
O           0.85468683887220    2.48874321571446   -1.24326958506511
H           1.14822746021819    2.43896339602908   -2.14769474620470
O          -1.95605815774287    1.48815723271723    1.31483981839815
H          -2.00730053737534    1.50863883370287    2.27260757776719
H          -0.99745561725220    1.51396788906178    1.08390397763288
O          -1.98506512544772   -0.69266216382510   -0.02455312576791
H          -2.22176727020023    0.13149576489662    0.51867997127886
H          -1.37029014249142   -0.28669535339747   -0.77828637452047
O          -0.04113343166329   -1.50423530978113    1.30745033778361
H          -1.26100287794565   -1.19771772076444    0.57397457245623
H           0.32129287962864   -0.59528122553984    1.32277562641770
O           1.62792390382819   -2.18146971833413   -0.61682507721518
H           0.54153477216089   -1.97892812791661    0.66910059045356
H           1.81434982422719   -1.26349517994729   -0.91091766841001
H           2.48116322565448   -2.60772571075925   -0.51565976965376
