    19
        -40.90627092
S           0.39620952120022    1.60889311632741    1.33658192764875
O           1.54307836709711    0.80059415979576    1.60061620214711
O           0.06367537236898    1.80454854800355   -0.04403300347784
O          -0.82578143431509    1.09995232327526    2.10438513417444
O           0.61766965431387    3.00911950948259    1.99554135443214
H          -0.06410669931412    3.58287235195908    1.65208420923917
O          -0.41789895848590   -0.92126373414578   -4.08621032792824
H          -0.47558699139012   -0.78831136797256   -3.12805068656169
H          -1.30512867977833   -0.79799320865916   -4.42621597775371
O           1.36353251425026   -1.63671659375548    0.52079179935518
H           1.56291305631211   -0.77400380567950    0.93310806774667
H           2.18972794925285   -2.12183714160675    0.48794753587285
O          -0.48141181495993   -0.53324836302520   -1.27993394929508
H           0.31628082127480   -1.02494943685562   -1.03089757478628
H          -0.29822659521893    0.39741506065850   -1.05908197594425
O          -1.30254699269986   -1.17044699677286    1.15910624870258
H          -1.09099351963437    0.14644378088888    1.77060265015674
H          -1.29451870621569   -0.99352366851892    0.18797044553672
H          -0.49688687404513   -1.68754451345135    1.30568791082134
