    19
        -40.92123230
S           1.15413636496606   -0.36054561615207    0.07193884481969
O           1.08515121901006    0.04764674607815    1.43720651897618
O           1.15153572545180    0.71851828148097   -0.89542449947537
O           2.40648497464724   -1.23447863417868   -0.14749816434729
O           0.01175293293934   -1.31299302148090   -0.28108941174968
H          -0.95728533932658   -0.91594337608056    0.02760846151200
O          -2.09076946662656   -0.24753571673995    0.45121431917651
H          -1.94839063338064   -0.19579287411045    1.43013824406679
H          -1.93022878376187    0.66523324309358    0.12142113010132
O          -1.09628912450585    2.07892589792969   -0.38426443348686
H          -0.20459225488617    1.71776359247440   -0.55463617235896
H          -1.32044738571625    2.62322465150519   -1.14159205745927
O          -1.17489556562357    0.12868302241234    2.89822761406588
H          -0.27142378962301    0.03668699632525    2.54239410864010
H          -1.23949388514020    1.02831338516599    3.22604362373412
O           1.69143657812776   -1.25305688236732   -2.65108341859835
H           1.46988121546440   -0.34034915320461   -2.40505058473415
H           2.39468801966602   -1.43384735139413   -1.11584995309698
H           0.86874917832397   -1.75045321075459   -2.62970417978485
