    19
        -40.91392430
S          -0.57914480362103   -1.30015990941195    1.72405706257122
O          -1.07445842838485   -2.35067222421359    2.53411328619740
O          -1.55236573981882   -0.13663567923257    1.70000960894381
O           0.76560521141476   -0.84369689092135    1.92297363828840
O          -0.60915366881359   -1.81654733863275    0.20221021649398
H          -1.40583428957963   -2.33710125146923    0.13344368123174
O          -1.13455139993799    0.96710276626523   -2.13429119304366
H          -1.03847729079683    1.56431534367116   -2.87740774416813
H          -0.36931946254159    0.34618692211092   -2.16976322386493
O           1.00530627929684   -0.60114482094437   -1.83380050315839
H           1.54261536024737   -0.05812013421384   -1.23576470194881
H           0.60662182856133   -1.27833080473603   -1.27546101823876
O           1.94129670853542    0.85796292683222    0.33353538824889
H           1.60162734290553    0.17601879997590    0.95987546445199
H           2.72327249569351    1.23484669200404    0.73999012369510
O          -0.63408359140088    1.73753729377122    0.35076573167346
H          -0.94837675623724    1.53769565759759   -0.56583502738563
H          -1.17464362025865    0.69687457341131    1.15841997373805
H           0.33406382471414    1.60386807802727    0.33292923624547
