    19
        -40.92174052
S          -0.27915816762642    0.50303109258183    0.68799607619072
O           0.65953225005799    1.48607315738665    0.18984382065155
O          -1.27416181720417    0.13380528794424   -0.39674511011441
O           0.32631631268484   -0.67369139123050    1.23912752514596
O          -1.15822651812777    1.16537559158993    1.77089161080732
H          -1.33138836894942    2.08823619976251    1.45076232752908
O           2.09177718430865   -0.40624060401550   -1.11236872900191
H           1.74659171835782    0.41531052291525   -0.72580399542935
H           2.36656754618188   -0.94995825694783   -0.36941283557503
O          -0.05356460472338   -3.12388244002699    0.19160657870463
H           0.14899680987774   -2.32100898136061    0.70838321344054
H          -0.81061063412888   -3.53440125360343    0.61272043785486
O          -1.01174718670961    3.49225992604349    0.62886016612567
H          -0.62173140293133    4.20813917445843    1.13688510443984
H          -0.27635555178952    3.00972824739654    0.20791145696620
O          -0.19548607222128   -1.49694253047682   -1.90730891471251
H          -0.86671754994948   -0.56634940381113   -1.12230819190385
H           0.72445057947900   -1.14283961349063   -1.87243186701454
H          -0.18508452659442   -2.28664473509091   -1.31860870410042
