    19
        -40.91864555
S           0.65586072937819    0.06709543223005   -0.97637570669039
O          -0.35491683628601   -0.98016123056901   -0.39360607830279
O           0.80679049826187    1.11118709850614    0.00980483942310
O           1.83692707122160   -0.61785871049307   -1.37112375777542
O          -0.10755643133210    0.62145949858956   -2.17820764882395
H          -0.70613588881972    1.37696458799679   -1.82206617469647
O          -2.71558176527384    0.30734782148041    0.22012308835193
H          -3.44644812150131   -0.13755625053270   -0.21350961863000
H          -1.93571722832959   -0.25954573895171    0.10628505889634
O           1.86285392380076   -0.24719457079271    2.07757229613084
H           1.59316916684928    0.36384968857474    1.36643736887050
H           1.42491382239146    0.05195311772329    2.87699990272024
O          -1.43553886188920    2.36658778268165   -0.92693501637497
H          -2.07782175760576    1.78612544904599   -0.46353890302328
H          -0.69546694635403    2.47624298752401   -0.31457598456663
O           1.38709444139095   -2.45181211844632    0.66016938878347
H           1.66335074778269   -1.80661699133378    1.34919416547383
H           0.23220770300842   -1.69735803378900    0.05964279902547
H           2.01201573330836   -2.33070982944003   -0.06629002880779
