    19
        -40.91983427
S           0.27037046177667    0.65060683294944    0.57673421763702
O          -0.40876630490393    0.76822900530331   -0.68612977216271
O          -0.61911296106161    1.19197674255209    1.70159492575289
O           0.66965371489891   -0.70435521253015    0.88932661167709
O           1.48429135028414    1.57725746878524    0.61461296538194
H           1.82414364406984    1.67627481705901   -0.35130028221202
O           2.03085171442864   -1.14337012281530   -1.40910116546355
H           1.65606166212237   -1.12281831513826   -0.51161942715346
H           1.44786813038977   -1.69945094700835   -1.93041347370650
O           1.99739203502350    1.49587709145704   -1.85452330187222
H           1.06251232332760    1.53188260616201   -2.09201508184199
H           2.22873507311218    0.54064589492386   -1.86156904540800
O          -1.67294407091469   -2.00731397114546    1.11739887947599
H          -1.71216722229872   -2.44484910477959    1.97042505717090
H          -0.76395736655342   -1.66431409658239    1.02535350101909
O          -2.79449414635059    0.38354480610845    0.70643794270029
H          -1.58685136720329    0.97431002348530    1.43788396830802
H          -2.49270991735861    0.57007025381511   -0.19126642458140
H          -2.62087675281450   -0.57420375259678    0.84816993527529
