    19
        -40.92174074
S           0.73888688537656    0.37860086953368    0.33754597106319
O           0.89224244168159   -0.86112684717698    1.06910581073601
O           0.67544950231580    0.10144985543321   -1.15324966554229
O          -0.37601211865984    1.17995132422317    0.74964505657724
O           2.03306146913753    1.20618542402710    0.49356891931241
H           2.77746194232020    0.55108502607665    0.46452560227879
O           3.50916432939109   -0.92209102637001    0.67074337948801
H           2.61653971530229   -1.27647682090616    0.83938408168023
H           4.01467470938321   -1.04136484937417    1.47877958667185
O          -1.74158333024864   -1.43762884634228    0.82616440987638
H          -2.12293690430913   -0.69118952797663    1.29585490858738
H          -0.79377913730718   -1.42828420661574    1.03880582032594
O          -2.42089275292058    1.77037000885594   -0.89787439020759
H          -2.22796085849062    2.58758704410293   -1.36031463793614
H          -1.74523325612428    1.68145990336614   -0.19908939424359
O          -1.61862287960353   -0.63410541814210   -1.70244493829916
H          -0.30066282479752   -0.25299591032314   -1.47535085411753
H          -1.81433736718782   -1.13329443858051   -0.87467042176670
H          -2.09545957528440    0.22186843618673   -1.60112923449096
