    19
        -40.91413651
S          -0.57708025149198   -0.19658227711316   -0.91608153463565
O          -0.91123964354392   -1.47955941617216   -0.34748205692355
O          -0.42363439045386    0.81122089579081    0.25249066788724
O           0.58049592219773   -0.15651508190261   -1.74310062452422
O          -1.78806106336821    0.36113634290145   -1.69038803327277
H          -2.60116849441954    0.04100577602675   -1.21613039187056
O           2.74084253009133   -0.21877689780133   -0.04447285270103
H           2.19367999711547   -0.31792781013435   -0.83971615507171
H           2.80645996490932    0.74359637241401    0.09038674308511
O          -3.49971398883351   -0.97129706949495   -0.27190419886877
H          -2.65829580519690   -1.41968834172276   -0.06183668359218
H          -4.04536992205153   -1.60502938122519   -0.74429284951451
O           1.97629340413499    2.36183020931915    0.52107575430833
H           1.94967550354543    2.57124887944892    1.45707628661104
H           1.07614825080912    2.12574447032456    0.26400218885945
O           0.89463036264899   -0.72744129889641    1.70894804082459
H           0.47772233142272   -1.54844587436756    1.42636335117692
H           1.73440801364063   -0.63666522761769    1.16645078616203
H           0.07420728883377    0.26214571014240    0.98861157211106
