    19
        -40.91317654
S          -0.93075734832879   -0.95604666807584    1.52174652604660
O          -1.28951838967629   -0.59249754253787    0.15679077229639
O          -0.06131163824745   -2.09748022189310    1.60200987875947
O          -0.38435753264507    0.21318857708660    2.23724034673789
O          -2.28335746826136   -1.31624869909690    2.25499969432957
H          -2.01544582819797   -1.75962693615692    3.05556501479122
O          -0.80071707781897    1.78621709422098   -0.98304323860409
H          -1.28950626222978    1.00553281331580   -0.65278294445524
H          -0.40107905603014    1.50399658541626   -1.82963453063692
O           1.19655555715142   -0.98526971678593   -0.57544368410144
H           1.46264534308128   -1.71573390394469   -0.00580490107920
H           0.21681626548654   -0.97111162150082   -0.47051230267913
O           0.76966521342382    0.60832267013277   -2.85667876898122
H           1.55308207894774    0.91334497987312   -3.31639579687145
H           1.03815407226712   -0.12778688264313   -2.28931843083256
O           1.06192919868321    1.34013803074210    0.61460037102213
H           0.46324970121614    0.93056280543172    1.43202364316292
H           1.38747012114972    0.51216714528250    0.15445514425932
H           0.30648305001652    1.70833148024853   -0.04981680786662
