    19
        -40.92135392
S           0.73197754218275    1.30662458917215    0.44037574488945
O           0.97308090041056    1.40878855414813   -0.99957198889349
O          -0.59884143612680    1.74405105700010    0.79994716434252
O           1.05480794528342   -0.01985979801277    0.94187984613826
O           1.75226283365062    2.29240456864890    1.13140491272623
H           1.44425638170535    3.14809434269454    0.84919336760251
O          -2.13229687478560   -0.05211057600573   -0.33498801371237
H          -1.97286173483539   -0.72986238625670    0.36445374961238
H          -1.75222375548856    0.76781693774692    0.06002758748211
O           1.25099004388341   -1.93073030359644   -0.87705372523933
H           2.14724534777699   -1.96734103911596   -1.21614635269964
H           1.26731973973657   -1.31868694797254   -0.10647256254637
O          -1.14506232110401   -1.34112594712718    1.75094577424283
H          -1.45085201864820   -0.98050245048220    2.58501144183918
H          -0.27962017413812   -0.92343288758974    1.57414002324948
O          -0.39209792354126   -0.38038753796337   -2.06430158872952
H          -1.24972645310271   -0.30837368086306   -1.39160547792851
H           0.17512092413229    0.44105991814769   -1.77560688748460
H           0.17652105300578   -1.15642644257197   -1.73163301488899
