    19
        -40.92022151
S           0.76265573781039    0.22884928436889    0.46964753639764
O           1.22612723346092   -0.04075395134720    1.90096714001087
O           0.86883535376296   -0.95136708274342   -0.34904367620154
O          -0.56879415369856    0.78812680273584    0.50063094902538
O           1.76901473353159    1.27468582997994   -0.02216730352046
H           1.86681458193179    1.14482076884537   -1.03516975473930
O           1.63542629904012    0.68829307271435   -2.47882873277183
H           1.61657941213688   -0.26320133149277   -2.32263675246924
H           0.69400359041810    0.95590291951355   -2.57846341304738
O          -0.92650094848239    1.35653292633502   -2.09750093512032
H          -0.93513748125682    1.14266885486074   -1.14482261499596
H          -1.20339678837103    2.27225464522648   -2.17250454150719
O          -1.18635648849426   -2.27612529184982    0.77830908912242
H          -1.91578736158797   -2.16034543294647    0.16560246899875
H          -0.38843871104276   -1.97118511186099    0.30997811186848
O          -1.03236986606987   -0.62816790161003    2.87592950922816
H          -1.48909207209931    0.11797117167232    2.47145473998193
H          -1.19177678417405   -1.39033119121592    2.27378125115193
H           0.39819371321327   -0.28862898121124    2.45483691860109
