    19
        -40.92174071
S           0.12909791045206    0.84452794883279   -0.27250858401671
O          -0.03536757295884    0.30843082286782   -1.60725878736751
O          -1.06188661616438    0.83293624569399    0.52533198455402
O           1.25850620566778    0.12715127873429    0.44335806371588
O           0.64017411898811    2.29734145899389   -0.38444014310227
H           1.28059326180924    2.30041147029764   -1.14216056901422
O          -1.26341671972074   -0.58608325126066    2.80323752709896
H          -1.33548209049080    0.00727119083023    2.03156126299292
H          -0.98561946074477   -0.04047433230489    3.54084578770585
O           1.92397093952808    1.79658113189360   -2.58454962259613
H           1.66918586992012    2.29499147818156   -3.36518856881953
H           1.31633340521751    1.03634826022083   -2.52284814451395
O          -1.38267072248507   -1.84658060349551   -0.67674622163509
H          -2.14105231288674   -1.41291861774975   -0.27685058521387
H          -0.94545684265025   -1.16930410594444   -1.21887563241015
O           0.38843789049842   -2.02274964118325    1.29380783989012
H          -0.23570880274065   -2.22903997355024    0.55829026095345
H           0.96302272563879   -0.84633059715912    0.82956333266448
H          -0.18266118690756   -1.69251016391180    2.02543080910584
