    19
        -40.90602787
S           0.18058195903648    1.42432564430904   -0.81215236459071
O          -1.09160892870455    1.00415675041540   -1.32662701047476
O           0.14449900460737    1.38874401853803    0.71361458225601
O           1.33561702220131    0.75738016902292   -1.31181264320972
O           0.34275508292270    2.95414593496082   -1.12384146222140
H          -0.53399891724713    3.33083066086784   -1.12435375539842
O           1.30445852039242   -1.79539368777151   -0.54301423782429
H           1.44129560892826   -0.89033474794911   -0.88441037525370
H           2.02358056183653   -2.33274225253399   -0.88088836237507
O          -1.42238764354414   -1.62380806162594   -0.60502374782214
H          -1.42109534202874   -0.84543135419501   -1.18271767572308
H          -0.50185667438890   -1.93601260451850   -0.57354373560447
O           1.82185328057426   -0.71089178747706    2.07205564734693
H           1.62282092886186   -1.25433416309763    1.29938398879958
H           1.46085297813882    0.15919612071256    1.88684561680533
O          -1.76746074602057   -0.03687683550014    1.40147296711572
H          -0.66648396114057    0.79372059480501    1.06388583032336
H          -2.59146039056245    0.40784084171060    1.18749941734636
H          -1.68196235374137   -0.79451526073871    0.74362733038347
