    19
        -40.92158939
S          -0.24987431458586   -0.95808536406702   -1.09422182675868
O          -1.43611745250285   -1.76902647001473   -1.05012053415948
O          -0.55177230612292    0.46591209105347   -1.29015555981515
O           0.66301782910615   -1.13742388431258    0.02481425789804
O           0.57172777293162   -1.41202950565219   -2.37112922504959
H          -0.09739849772101   -1.65529523452408   -3.00359026684742
O          -2.57266159079047   -0.10124008947762    0.68781244479705
H          -2.29671608026445   -0.83236093102717    0.10121208204304
H          -2.77454095462320    0.63196952987681    0.10182786974641
O          -0.34417831389818    0.26587695435136    2.05856751374162
H          -1.29225888277615    0.18343537571660    1.79852030206537
H           0.08595466433210   -0.47018288779897    1.58031204161950
O           2.68642318558048    0.52255502544473    0.10490541554077
H           2.06602136981135   -0.23191181379399   -0.03147489890310
H           3.26101210877398    0.27763677503340    0.83302715035644
O           0.55095286101284    1.89769626020536    0.40364515237462
H           0.06215234837941    1.41023631398604   -0.39440798873485
H           0.16160112627965    1.34362243525071    1.23348071248655
H           1.50665509709928    1.56861540974921    0.30697535759515
