    19
        -40.92135413
S           1.31956049394279   -0.09958366405766    0.82753511953602
O           1.90377307117065   -0.21235755389113   -0.50953685804061
O           1.02182031263612    1.27240510632133    1.17528998041742
O           0.18276907522093   -0.99221755858830    0.98923574896673
O           2.41970101644774   -0.61018735871338    1.83705671648174
H           3.09428210026893    0.05862873745486    1.77132330407389
O          -2.12734409172228    0.36486976707652    1.23328604917668
H          -2.17966832215683    0.76203583652545    2.10435031017496
H          -1.34471888650143   -0.22008142394207    1.24653708757222
O          -0.87800115714893    1.90305344364052   -0.51545766975163
H          -1.58154709084522    1.43312335449888   -0.00710901887109
H          -0.11631776305909    1.90672343940283    0.11115657107289
O          -0.87322943194051   -1.93760671839627   -1.24475243012235
H          -0.55202608129949   -1.71362347934590   -0.34186834112216
H          -0.41963837689688   -2.74154353466413   -1.50468550668497
O           0.06520796119196    0.26952697533249   -2.11771168480057
H           0.93818853501477    0.11024026175849   -1.57716587031779
H          -0.44453522991218   -0.59608683748160   -1.95385759036508
H          -0.42827613441248    1.04268122707179   -1.52362589739743
