    19
        -40.91176135
S          -0.22192671902227    0.36419213304738    0.28691530252326
O          -0.00660645341121    0.11390975220000   -1.21260228838602
O          -1.38589069926504   -0.36502047166984    0.71667958234979
O           0.97778516691517    0.09548675855990    1.02047427754883
O          -0.50317135489098    1.88071486770481    0.34588846342957
H          -1.47595563641045    2.00621567436789    0.16513512437691
O           1.93499219198155   -2.36437658806463    0.41408137864575
H           2.79412779744852   -2.24018972221201    0.00428076710773
H           1.69918810957215   -1.50958029387867    0.81566475738642
O           2.48355217288486    2.04574804632466   -0.29036122972627
H           2.11270648279419    1.35746352688533    0.27338172174718
H           1.78534652697766    2.69197116643664   -0.40884489271308
O          -3.05873486376678    1.60259917757827    0.11882244677368
H          -2.79150692343008    0.68854118526374    0.32775580194515
H          -3.59629948418918    1.91442321902463    0.85148051833009
O          -0.25934599697358   -2.39260797787966   -1.07346198774047
H          -0.09846891158597   -0.89505010152093   -1.35292813863498
H           0.57500596255509   -2.59124897985318   -0.58364174866743
H          -0.96479738817592   -2.40319135231903   -0.41871986631105
