    19
        -40.91855598
S           0.50202877200235   -0.68241591365605   -0.80090053213878
O          -0.57297460942290   -0.07590912126480   -1.70486676307391
O           1.03059686012507    0.35527175794147    0.06304102873786
O           0.03130351600844   -1.84390733778312   -0.12218813642949
O           1.59661231642390   -1.08588406978371   -1.80947977191664
H           2.04021482257134   -0.23926581030555   -2.07170439762130
O          -0.96937265786515    0.88015877553401    1.85329166686295
H          -0.12529656293717    0.81773153850714    1.37778936862446
H          -1.10375615031135   -0.00285747361147    2.25043725882202
O           2.57762079357510    1.31976169057498   -1.84851217726920
H           2.06155098315733    1.30775085084294   -1.02075196302059
H           3.50083706280049    1.41821432120461   -1.60262641728381
O          -1.02047701257531   -1.77130380479836    2.38524606663402
H          -0.43055763348575   -2.27679515138638    2.94690778042290
H          -0.73248967943356   -1.93376424552444    1.46983926632357
O          -2.42161039028144    0.86496471606767   -0.28561632512387
H          -1.38184589665847    0.27682217486060   -1.16259967438818
H          -1.97573112862652    0.89754321675953    0.61599946789240
H          -2.60665341515148    1.77388386555154   -0.53330575627817
