    19
        -40.92037960
S          -0.17383625052575   -0.42452763755078    0.97480872005421
O           0.17282111602731   -1.41603221480714   -0.03011071006479
O           0.87750867889537    0.67094556102222    0.97662935793068
O          -1.48869539916520    0.11700450138755    0.84285933635062
O          -0.02397519910375   -1.07220260319287    2.36705038596221
H           0.78479414386795   -1.64115231458587    2.31495353781238
O          -2.08845927081929    2.45443928817730   -0.34914061488898
H          -2.71676193480850    2.23448999529314   -1.04021825390762
H          -2.01654198118503    1.65980048908902    0.21174668732964
O          -0.03007183706357   -0.12218826539446   -2.37039059334848
H          -0.04397418177616   -0.68943905806034   -1.57536359960473
H           0.59588345050866   -0.52036957218144   -2.97862441295878
O           1.88709455940195   -2.64356370310973    1.56428058894703
H           1.71052548631452   -3.58300832710698    1.65742262575066
H           1.46117475003919   -2.35390449485972    0.73571317927190
O           0.45842593899157    2.10933622723996   -0.99181876755530
H          -0.44394227865718    2.45836980652259   -0.78919072731435
H           0.75822885120453    1.35400791194914    0.14682736832621
H           0.31980137784902    1.40799441019724   -1.66743411809889
