    19
        -40.90719287
S           0.99590620844690    1.05829299377540    0.68153392035555
O          -0.24898923044389    1.73864466152228    0.43715053240438
O           0.85706780106727    0.03997650577412    1.79609680917898
O           1.64378506619093    0.51022212350139   -0.46367303655117
O           1.96884851904088    2.10766530155796    1.33130558529729
H           1.47990005365839    2.52796468363140    2.03537292256798
O          -1.51670805859922    0.81815089925597   -1.81261999190217
H          -1.09847768506281    1.26084338443627   -1.05341823351305
H          -1.37524339891137    1.38358627490978   -2.57350522079572
O           0.10083754139953   -1.40761536116496   -1.61844867873751
H          -0.67226484550024   -0.83906163545548   -1.77418585624452
H           0.83325702018789   -0.78546604330145   -1.49063812557735
O          -1.87879781976020   -0.50683941741950    0.78711038887328
H          -2.34999274852472   -0.49013458513557   -0.04981984197401
H          -1.50190445584208    0.37110725776095    0.89902694615023
O           0.53233433474390   -2.22198646962565    0.82433225856879
H           0.17517513386652   -2.02242291119018   -0.08780739093290
H           1.40688713586628   -2.59950490395827    0.69704449511843
H           0.64837941817711   -0.94342277887512    1.43514250772608
