    19
        -40.90627054
S           1.52278227231133   -0.53707528183639    1.38227110698343
O           2.06995165800621   -1.39901476423686    0.24264199588929
O           1.31559991114502    0.80664623064368    0.92755586705907
O           0.40909815832477   -1.16749026308106    2.01528205951217
O           2.72533592783003   -0.54103832037504    2.38116255930413
H           3.38371014918454    0.04680010213958    2.01649240818428
O          -1.76169026138442   -1.23082352383336    0.45858723044691
H          -2.57523040839420   -1.45154308973031    0.91532661451353
H          -1.05339810759397   -1.23993585660937    1.13105614355483
O          -2.02656377298302    3.32766272588592   -1.59365710940670
H          -1.53803106284022    2.51438895418280   -1.39599832647008
H          -1.58128816854887    3.73108752574811   -2.34002313436012
O          -0.64640050423229    0.94568045842410   -0.92115095641703
H          -1.34563967504033    0.48135365841943   -0.43617466828254
H           0.04923340445215    1.13454772499697   -0.26611629179563
O           0.23201801531096   -1.49873749569095   -1.45630820883373
H          -0.52788591211599   -1.88068919408570   -0.99258340961946
H          -0.00770072259277   -0.54636683542710   -1.55427837534478
H           1.35609909920761   -1.49545274560698   -0.51408551497064
