    19
        -40.91898065
S           0.02882351348257    1.61836262054141   -0.20876845296833
O           1.18587058768277    2.07609726825683   -0.93212796082968
O          -0.82786471594050    0.71702090975147   -0.96282468177699
O           0.38013784032219    1.01500392070840    1.08869148268617
O          -0.85228209158104    2.88760996886642    0.13582928223877
H          -0.23304436088112    3.60697839192997    0.22720516067262
O           1.38751104782065   -0.40548346657965   -1.89279205895270
H           0.43065903797320   -0.21614510545535   -1.88993595430293
H           1.77255032179732    0.48596130666958   -1.84253163912548
O          -0.58836962779826   -2.56241829362606    0.72217459377538
H          -1.23885998571070   -1.83614184878200    0.94318595612869
H          -0.87872253435792   -2.94270677219222   -0.10942743649445
O          -2.03920267752489   -0.42513477752090    1.09096409748743
H          -1.77994929915812    0.01972832314753    0.25740466462110
H          -1.60656859728840    0.08688478997317    1.78110157748598
O           1.48462743141559   -1.13343950885314    0.53439704324714
H           0.70071709830646   -1.81329470849243    0.65001017011780
H           1.58019779742699   -0.96143432933076   -0.48132301199118
H           1.09376921401356   -0.21744867900753    0.88876718797767
