    19
        -40.91469046
S           0.70340650142423    1.16557278069701   -0.22010517736205
O           1.15176254518926   -0.30273036504031    0.01098497319956
O          -0.70380561300667    1.15587526612149   -0.54410177141375
O           1.09339288247335    1.95726021558201    0.89307089823802
O           1.49474504231052    1.56853967205121   -1.48245996802167
H           1.03170387197355    1.13378047220686   -2.24632632131303
O          -1.60774308365145   -0.25364474515184    1.65296025587259
H          -1.53655505655119    0.41644280475382    0.95735331893311
H          -1.63160388206377   -1.10141376081778    1.17416968227250
O          -0.82730010488272   -2.33900716720759    0.03618353136659
H          -0.41930952840295   -3.11173080888012    0.43174355389301
H          -0.10770485947785   -1.76052325534120   -0.24968344633543
O          -0.23420951770514    0.43156218622188   -3.04726706828573
H          -0.67474026233403    0.95648310197940   -3.72024064469840
H          -0.75196812819351    0.52924299703368   -2.22689119629708
O           0.87135576622373   -0.31169231441312    2.49025006306231
H          -0.12258938918303   -0.32104151793227    2.41114122501240
H           1.15469864020048   -0.42405690723287    1.05089625625129
H           1.11646417545393    0.61108131527271    2.62832182561779
