    19
        -40.92022157
S          -0.42708662894050    0.74198160957678    0.34933491532042
O          -0.44934438140304    1.37349093353218    1.74104844231243
O           0.81902046062037    0.99924338160503   -0.32551703913277
O          -0.73908341864603   -0.66385725316897    0.46222695929632
O          -1.55509792881942    1.48169615312415   -0.37787685598878
H          -1.30244533345985    1.51294989482918   -1.37182293122996
O           2.32149960573638   -0.65073841161549    1.18086178662239
H           1.94610743379184    0.02801333467117    0.59136535201267
H           2.42872805437250   -1.43952215248797    0.64480737109622
O          -0.86004551991897   -1.35138190965996   -2.12884367081366
H          -1.69144323477115   -1.80481429951214   -2.28366997367152
H          -0.78528169054919   -1.23463220569223   -1.16227358325945
O          -0.61246081762275    1.24716931159549   -2.71297052259395
H          -0.69112965888307    0.26681113222447   -2.73760300713157
H           0.29524771860337    1.42510117288988   -2.43999646612011
O           0.39001767233035   -0.63578127540736    3.02752847097650
H          -0.13742252700804    0.66092114660689    2.41064365616822
H          -0.19664501170327   -1.25993342580278    2.58570940812168
H           1.24686521623143   -0.69671711735745    2.54704769796448
