    19
        -40.91790598
S           0.53081711725568   -0.74113202581024   -0.47244740019275
O          -0.79182134965767   -0.21263841737852   -0.68794763193767
O           1.59388650066688    0.07767657812782   -0.98011295167915
O           0.75326316593940   -1.04192497489615    0.99820678176095
O           0.61362108110570   -2.16035277967986   -1.11610488625801
H           0.50280206222105   -2.00026359492731   -2.07667609105789
O           1.28686791497656    1.87882989517167    1.04916518552204
H           1.77498917250963    1.47079114585686    1.76751395651306
H           1.52743120612453    1.38942465753308    0.24730603545293
O           0.21568172085716   -0.71320646800061   -3.27080988133836
H           0.95993284323927   -0.14263007322664   -3.04659107910483
H          -0.56245150517395   -0.30242898637276   -2.87803431233858
O          -1.43101758530838    1.68049407050201    1.18128124416041
H          -0.51729645959963    2.01098009656798    1.26292409483388
H          -1.45005563821309    1.23996903490429    0.31827092725052
O          -1.35516996087683   -0.66037899281393    2.27469616412713
H          -1.46701427118291    0.30760497090874    2.01702321304405
H          -2.06110152871785   -1.13577217235087    1.82911672402851
H          -0.12336447616277   -0.94504197411626    1.58321990721526
