    19
        -40.92246928
S           0.28366124583010    0.31233119070683   -0.98330112777899
O          -0.00812314497423    1.19146951660087    0.22994125817280
O           1.58334269146877   -0.29661338273013   -0.82097159731844
O          -0.79255699748081   -0.60304818573060   -1.21464464289189
O           0.33674299381766    1.33689910360703   -2.13753668982360
H           1.13492130745395    1.88550931006572   -1.93270792127996
O          -2.83902562321583   -0.97892607658237    0.48814743817050
H          -3.57650361338062   -0.42434017510907    0.22839535874579
H          -2.19398578771479   -0.94275710140522   -0.24353193320167
O           0.66344197829044   -2.14023852321506    0.92396166013188
H           1.18834772755360   -1.59568299451562    0.31258466995765
H           0.07862983816168   -2.66590701220629    0.37247564824188
O           2.48180371036414    2.23475935292534   -0.97360317449651
H           2.18282785571235    2.60891358795584   -0.14006299185134
H           2.60157122335220    1.28313294665208   -0.82157570765977
O          -0.82131014805826   -0.25809086930968    2.04862536444202
H          -0.23242859664983   -1.03353311430410    1.88043873734403
H          -0.37065936857140    0.61293517553390    1.09247559725194
H          -1.70069729197462   -0.52681274892482    1.69089005384369
