    19
        -40.92217272
S           0.07617367094974    1.30276040826505   -0.45323031868692
O           1.23596561162725    2.14364706453450   -0.53329756544172
O           0.11450836104509    0.09531854255678   -1.25932933948966
O          -0.32242618689211    0.99845312732269    0.92700220383545
O          -1.14471137475340    2.14283463963558   -1.05518353388908
H          -0.87680191799721    3.05291351311917   -0.96891963592676
O          -2.26317961631435   -0.94835063649728   -0.95712956074200
H          -2.90209363621404   -0.23298572710171   -0.95127374077420
H          -1.42148591819865   -0.55908376087980   -1.28884267072811
O           1.22588425212599   -1.96343301810261    0.05126171542907
H           1.85655721183531   -1.34486964760663    0.48205296779423
H           0.97352122451429   -1.48842957721366   -0.76028024745847
O           2.40750553695518    0.24779199761141    0.97386557041534
H           2.16954094665935    0.96763761751851    0.36301334772275
H           2.10623535300221    0.53654065951656    1.83863779565689
O          -0.92484018368802   -1.38730114934613    1.18162924738527
H          -0.69583535363194   -0.35701523634153    1.21017061465817
H          -1.59622636587213   -1.41864529353555    0.42124399496899
H          -0.01829158511525   -1.78778349344099    0.77860915531051
