    19
        -40.92008982
S          -0.41199783210005   -0.65104728741208    0.24545118698821
O          -1.64628593164735   -1.29082106475830   -0.39666140545353
O           0.72155905120355   -0.77266169003161   -0.62848366994659
O          -0.71691988453188    0.71355741293551    0.61997559487133
O          -0.19865857702656   -1.49059171745696    1.50822323887827
H           0.81508467884900   -1.48802591104854    1.69035523024771
O           1.47382288188908    1.37020822321628    2.06183743276366
H           0.67323834271057    1.28645374095184    1.51248972885338
H           1.18405719571448    1.69182852909444    2.91802692562760
O          -1.43772494885517    1.76260840250688   -1.76589925679005
H          -2.30682316329074    2.15734150666471   -1.66877455461944
H          -1.13755190247358    1.53097826943841   -0.86821669942723
O           2.29235618077389   -1.13586443023196    1.63454962512683
H           2.37881319919794   -1.12921652412154    0.67267434978060
H           2.23273336679558   -0.19041200968825    1.89775314039926
O          -1.04758557346734   -0.68289139915450   -2.76727967176232
H          -1.22300942950918    0.27803883482649   -2.65612569693723
H          -0.10338136180806   -0.79257947637347   -2.59621900366935
H          -1.54172630243162   -1.16690341934469   -1.41367650491508
