    19
        -40.92120578
S          -0.87313453125079    0.07194944454677   -1.06505357319752
O           0.52245957068970    0.44683952625567   -1.29559585838390
O          -1.01297502019891   -0.69873391174920    0.15971800413597
O          -1.78790303447386    1.17116380844153   -1.20594072726985
O          -1.22108512686560   -0.96666728943993   -2.22740943993481
H          -1.54518457834764   -0.42202512437540   -2.93843231988155
O           2.04647972003036   -0.34020597277909    0.48643038532682
H           1.79741264984009   -1.31736695392989    0.37914102244752
H           1.52008200434187    0.08798591076609   -0.31904106891584
O          -0.59342304908263    2.48777202421562    0.78391212394546
H          -1.17950783639783    3.19358888628868    1.06499774637823
H          -1.02084715860620    2.06856278829753    0.01200511784764
O           0.83940562185376   -2.53949597885205   -0.03528672632893
H           0.01308473273551   -2.01172420600634    0.05994266752599
H           0.85193593593418   -2.85505300198995   -0.94087008093864
O           0.36274116411766    0.42118652687348    2.16294675677677
H           1.46862066155869    0.00483124641576    1.31554329689376
H           0.13751110797173    1.32671033209128    1.85872348687667
H          -0.32567284385237   -0.12931806506909    1.74426917669231
