    19
        -40.92136503
S          -0.36147968043887   -0.61093300983649    0.78827216983445
O           0.16137729553502   -1.03966339888532   -0.61311057367340
O           0.38222209383842   -1.25708420604149    1.82170046272525
O          -0.33998675169776    0.83111292078053    0.83140676896355
O          -1.79226685064442   -1.13787502901583    0.77257582445740
H          -2.20197058836737   -0.90814560862960   -0.13852406971578
O          -1.69717713175049    1.99128386168552   -1.11472123943192
H          -1.14279271260825    1.67454704910809   -0.36911028537511
H          -2.29159975102667    2.64926815445619   -0.74936248274512
O          -2.53563406156912   -0.47072431758380   -1.55624159745107
H          -1.84899702380050   -0.88031888252476   -2.09044935545193
H          -2.32924284453800    0.49700350074353   -1.53521813431469
O           2.97316903352098   -0.59567356433485    1.68190015094395
H           2.05467012547766   -0.83432864240112    1.91523604170161
H           3.48499618316798   -1.40497039783955    1.74006069802249
O           2.15280174804907    0.52133856895693   -0.57774613722369
H           2.64424869083698    0.16340347843759    0.19948603325323
H           1.00406161971593   -0.48449300120687   -0.75475133482118
H           1.68360062637108    1.29625251417662   -0.25140292972922
