    19
        -40.92113584
S           0.74124192558115    0.54123848416157   -0.76339200012892
O           0.45682466517875    0.98038232576945    0.58950462621887
O          -0.14668013006347   -0.70546083096404   -1.04395489560367
O           0.53988118482848    1.52142600918994   -1.77224951537259
O           2.15121696819128   -0.03912745510339   -0.82053997220024
H           2.13551500886073   -0.93648430761297   -0.32386479132012
O          -2.16697236944859    1.60499584221585    0.44300620221288
H          -1.20455482753226    1.53881577360014    0.57876483809002
H          -2.58006507270510    1.17926875840993    1.19712431838445
O           0.74117379367301   -0.88335528921343    2.45286171084497
H           1.32196227999901   -0.54950182612184    3.13941229012776
H           0.57243118933565   -0.13270484312784    1.84501373104457
O           1.80548515415298   -2.21502133047359    0.43017056021758
H           1.05531170675435   -2.56583629152414   -0.05892548206924
H           1.44121648667531   -1.87524213085425    1.28454237680022
O          -2.06047524738632    0.60500426189976   -2.03461523153352
H          -0.99057853836910   -0.33934887696763   -1.49339239684406
H          -2.34797650888542    1.03034240508880   -1.19734240049169
H          -1.46495767885437    1.24060933163318   -2.45212396839655
