    19
        -40.92218939
S          -0.72169536366523   -0.50847554725630   -0.74870926901373
O          -0.41445819037347   -1.36581858665975    0.39147981550245
O          -1.20034332605131    0.79769146208624   -0.30718045058520
O           0.42763802322287   -0.38003180282762   -1.64451383535912
O          -1.85099452290134   -1.18647061710818   -1.57810729431485
H          -2.58230435029877   -1.24086389703284   -0.92818208148915
O          -3.08862852478945   -0.88901768664846    0.72465512961207
H          -2.81621109301223    0.03566300393720    0.65443220219722
H          -2.32450912411170   -1.34308132679168    1.10389544663092
O           0.68680139150968    2.49686839523217    0.21627864554796
H           0.55934374307225    3.23713933673042   -0.38098277519227
H          -0.10220654913592    1.90351289557866    0.09136674610695
O           1.96102724785694   -1.01014135887869    1.36707423668673
H           2.41402754470094   -1.85303359504328    1.29471907588088
H           1.01814209909390   -1.18045517892490    1.09823097394005
O           2.31320804774062    0.69088703188083   -0.46435241785998
H           1.59275337925151    0.22396501440681   -1.09083540841066
H           1.79472993576684    1.52743743407079   -0.14290183286073
H           2.33367964208066    0.04422502326059    0.34363307301289
