    19
        -40.91392408
S          -0.09235091849858    1.27036350147275   -1.83752500193383
O          -0.05281846783758    2.34915236920793   -2.75391797141078
O          -1.25982787498369    0.43902018683846   -1.79261580118296
O           1.16900494606932    0.43363875144921   -1.93808321617283
O           0.01544490665011    1.89603472042805   -0.36085155992074
H           0.61985641020444    2.62917220234426   -0.44771105873512
O          -1.63475976652149   -1.39459194272102    0.02459005233546
H          -2.32889365347737   -2.00448170244307   -0.23026252192574
H          -1.60663427681752   -0.69637019256431   -0.67139364380140
O          -0.84462723253475    0.43639317763046    1.95395170537048
H          -1.28502309104661   -0.28150711342544    1.47228747989724
H          -0.74829849326269    1.15165528400677    1.31493590894425
O           1.67754391458549   -0.43933560340065    1.94554457847972
H           0.77987439209354   -0.05698850825356    2.08798219126539
H           1.87177547571738   -0.97848241390717    2.71342300220334
O           1.05194571716127   -1.51105234357805   -0.39529108743977
H           0.10132968909781   -1.65581776311202   -0.21995117599267
H           1.13694976396787   -0.42703167622137   -1.31414772738729
H           1.42950856935282   -1.15977093373772    0.44903583741260
