    19
        -40.91885142
S          -0.70177450621565   -0.01192115209067   -1.00646530761173
O          -1.89623083972385   -0.49157775272703   -0.35663972121687
O          -0.45465316769806    1.40214957172754   -0.81894012057238
O           0.49007993290527   -0.78641029827152   -0.54023659665205
O          -0.83176564147866   -0.31074505736673   -2.52696201350131
H           0.06382914864254   -0.12535999322877   -2.87484766204805
O           0.49845876350525    2.08144115117346    1.47452115483914
H           0.05060590518690    1.94109689857952    0.59403069399516
H           1.29265303652941    2.58721871462314    1.28950974643914
O          -1.77996829989374   -0.98125503873747    2.18445580531024
H          -2.04232174628938   -1.89797803104077    2.29162305329807
H          -1.97207700890628   -0.74912225614670    1.23753659074375
O           1.80075308313036   -0.19457611186100   -2.75562525767991
H           1.58895992621222   -0.43753895565707   -1.83406030129944
H           2.20159124870981   -0.96726990942354   -3.16045358142938
O           0.65884731001434   -0.39614022937071    1.89390490404490
H           0.66061240888200    0.64288377869541    1.87441166097481
H          -0.29993796801855   -0.66359695887590    2.17675709753366
H           0.67233840443278   -0.64129836985605    0.85747985483908
