    19
        -40.92453848
S           1.27844910867636   -0.81886712224779   -0.13070293947676
O           0.43350194991834   -1.47641664870160    0.86020684704067
O           0.63579979681627   -0.81703885903910   -1.43983092051760
O           1.69480471076815    0.50416198172296    0.28454920374686
O           2.59509261538321   -1.68168403840736   -0.25991943975646
H           2.29823114813697   -2.54464332237830   -0.53390562960038
O          -0.10602385888651    0.92379774424420    2.10831326416898
H          -0.21399888627008    0.00825165468790    2.39213713822045
H           0.70245151379695    0.89546122287248    1.54001796707439
O          -1.85190310442177   -1.18030371246216   -0.32634413208856
H          -1.06385702351927   -1.43954091073909    0.21572329197310
H          -1.53666579718426   -1.25681478054307   -1.23463026910804
O          -1.74485084551175    1.27563588145203    0.22561924619166
H          -1.95174514387883    0.27696141508560   -0.00401433045647
H          -1.15524117017273    1.22589326238752    1.08885118036340
O           0.02353450698167    1.70887985430571   -1.51718437904286
H          -1.08959967456179    1.58157810962964   -0.53175801786216
H           0.79541727585087    2.05320825035950   -1.05299836171986
H           0.25660288807790    0.76148002776897   -1.68412971915045
