    19
        -40.91833237
S          -0.91809551297962    0.96236219462796   -1.09952707264526
O          -0.82471505029301    1.14558224021342    0.33541469356985
O           0.04465592010544    1.71620785442215   -1.86341691977364
O          -0.90591621961034   -0.46478939479086   -1.45770513053959
O          -2.35149512622892    1.49315583990367   -1.51527221529973
H          -2.28883803869117    1.57397267338397   -2.46218201299600
O           2.15314899822651   -1.22994368323981    0.45928903378755
H           2.74567763790904   -1.58526809229822   -0.20577602565008
H           2.10405990218807   -0.24840977038209    0.28765736199246
O          -1.39615750574130   -0.66597088196497    2.09781736620320
H          -1.32507472983099    0.10848866517563    1.48312949723374
H          -0.90684037392328   -0.43083514417893    2.88888568429478
O           1.91239771341254    1.32554356660380   -0.05252960170473
H           1.37039354986623    1.50161778339168   -0.85094063714778
H           1.39818891834963    1.71210958071409    0.66208517007222
O          -0.24688484818398   -2.04657119393961    0.29947867791441
H           0.74806204852859   -1.79907240963952    0.39897348564554
H          -0.73299420415475   -1.64695930321428    1.10778931723093
H          -0.57957308890815   -1.42122051489735   -0.51317067216680
