    19
        -40.91832178
S          -0.61144597878076    1.25167232749820   -0.01310301720323
O           0.28777565048221    1.06188828195452   -1.24617572102009
O          -0.96033437930603    2.62985929164063    0.09393410571916
O          -1.66306255352765    0.27815945068556   -0.02556586822998
O           0.33674483094905    0.87391609463238    1.17696266672417
H           1.01942393072954    1.58958510963562    1.16912533589696
O           1.65795073070409    3.01674218973029    0.53285053436260
H           2.05404884550607    2.86673845098002   -0.32990812600571
H           0.75359868592713    3.33139691331567    0.36689811162350
O           0.62986880289822   -2.80836584646385   -0.23123344790082
H           0.12383906434333   -2.46403145570065    0.54218413565636
H           0.45020550154592   -3.74896590101284   -0.27707644018943
O          -0.86077913130388   -1.67594174907170    1.66897571671801
H          -0.29978772908952   -1.15829898649979    2.25188889184304
H          -1.32045531263858   -1.02111729475193    1.11370213201217
O          -0.43315053317104   -1.20132258797435   -2.03300897423446
H           0.05782829822681   -1.84533859152589   -1.45849499779656
H          -1.30787412630290   -1.10737073668866   -1.63625108083321
H           0.08560539276608    0.13079503970759   -1.66570391713373
