    19
        -40.91033142
S          -0.67936725424006   -0.00079999546656   -1.00009174402383
O          -1.19628188732003   -1.31770439871249   -1.23772412693242
O          -0.49773710170862    0.22644891095634    0.51473509782929
O           0.52978676937558    0.34841006941321   -1.67889669322299
O          -1.76477749823771    1.05017690653021   -1.33846329484485
H          -2.62225179597212    0.62360358395468   -1.07982303922902
O           2.83387299593938   -0.70326872362958   -0.80838385280636
H           3.48796780072373   -0.00408062661807   -0.87254818831607
H           2.04415503382285   -0.37963532595593   -1.28354333192532
O           1.38381960608534    1.68906254116751    2.19785830769448
H           0.65217625455245    1.63939344849557    1.57057641240653
H           1.01865149526696    2.01012809261139    3.02447308619302
O          -3.66808091764784   -0.60955288160959   -0.74341555319819
H          -2.88572548696067   -1.19215589597094   -0.82224647235666
H          -4.26980912051744   -0.85900251907872   -1.44919132864365
O           1.48910192180127   -0.95337573981395    1.46435480252436
H           2.08283949338694   -1.02546142558335    0.67858230050250
H           1.78931510611292   -0.16747776990835    1.95340812497646
H           0.27234457551691   -0.37470825080391    0.91033950335915
