    19
        -40.91295827
S          -1.23009931284700    0.63879984733681    0.66153074919612
O          -1.40064649202275   -0.55965420507110   -0.26462319397004
O           0.17145262188143    0.96525979314452    0.77223626536578
O          -2.08546520693326    1.71724947809151    0.29978203367237
O          -1.69671314271819    0.05340241172748    2.03643842040727
H          -1.03341239434235   -0.60440527781136    2.30077696555437
O           0.83785808267788   -1.10402221187475    2.13534518208431
H           0.76770343093797   -0.25043164216776    1.64417498601809
H           1.44653023035094   -0.95119855301776    2.86185240795673
O          -0.45135861930629    2.22816774420661   -1.86853873390506
H          -0.98046093603276    2.25186946681541   -1.05711418364801
H          -1.04604159341926    2.45951882238943   -2.58638970198048
O           2.01712821693792   -1.71458778954516   -0.35004099850177
H           1.63596707495835   -1.62649556297740    0.53933238169529
H           1.84650933713857   -2.61470408211994   -0.63448223150961
O           0.36598308474602   -0.34040927977272   -1.97478796428781
H          -0.67816949068178   -0.53234192491174   -1.06267381574506
H           0.37354659599403    0.63892441240805   -1.99693497843153
H           1.13968850404256   -0.65494148514911   -1.45588358108917
