    19
        -40.91535457
S          -1.40213008950398   -0.80892070410645   -1.17909123401661
O          -1.99787197194618    0.40049184710190   -0.69443026770284
O          -0.33647637152453   -0.50658026609136   -2.21905957511932
O          -0.90157930934866   -1.71277720144856   -0.18654551013808
O          -2.47670699519800   -1.57759860361911   -2.02601747952452
H          -2.92794424135291   -0.90742085804276   -2.53409973443569
O          -0.14679497899526    2.13484590552264    0.30843289911222
H          -0.01447477155630    1.84111973699471    1.23094191856416
H          -0.96269823065990    1.70219714902982    0.00719218985341
O           1.36784451034032   -1.23167845751906    1.04588138741014
H           0.49128030251025   -1.46775617146645    0.66494973280217
H           1.79977135657377   -2.06224715551210    1.25394552096184
O           0.60696829142744    0.91660369166917    2.63175925703935
H           0.87661373216720    0.09168493569797    2.19435530425346
H           1.39242629054474    1.28647537752946    3.03851327643866
O           1.47808467207492    0.60576642433779   -0.98225053847394
H           0.94959031931846    1.33661466664880   -0.52807802923812
H           1.69254593485164   -0.03458766418759   -0.27890801790755
H           0.51155155837326   -0.00623265286898   -1.74749108046352
