    19
        -40.92134959
S           0.92156595071467    0.22682591395799   -0.74328515160032
O          -0.46771630645241    0.02766327337502   -1.22684613635877
O           0.92682579291311    1.32036824621421    0.22644359383596
O           1.47536381732632   -0.99543894045536   -0.22195132362437
O           1.75908812854134    0.65968622093361   -1.97767906624806
H           1.33324083792507    1.49770281055613   -2.25745195238542
O           0.07160675415971    2.67936303039119   -1.93792618530761
H          -0.67385468149634    2.08240563250834   -2.06526083699892
H           0.31471065771107    2.59306752838817   -1.00237505263602
O          -0.53327247739164    0.47738488016026    2.20234240019590
H          -0.95051622799722    1.24820052554973    2.59300433050138
H           0.12118023662569    0.82141491694037    1.53948864369572
O           0.03989831602548   -2.95023761029742    0.72138316318931
H           0.40061071701898   -3.13141127406905    1.59247323660106
H           0.68762575808729   -2.34686806923633    0.27916003627289
O          -1.68727605360724   -1.10817253279481    0.57694289535561
H          -1.36517326698739   -0.50067450465634    1.33270063580779
H          -1.24996092775368   -0.63030586051190   -0.29587472158211
H          -1.12394702536843   -1.97097419696933    0.66471150129822
