    19
        -40.91392417
S          -1.80440146327568   -1.13643644407094   -0.66750928956281
O          -2.70941954290016   -1.96285946648389   -1.37673732629510
O          -2.07367400333089    0.32776267171432   -0.95987432906526
O          -1.61718793871619   -1.35638607486596    0.73698012678483
O          -0.34835289403505   -1.36233770584590   -1.30895569216581
H          -0.50252898163001   -1.45482184140750   -2.24601991758067
O           2.04915046532590   -0.72413637131505    0.13114086732620
H           1.40818937068943   -1.22742909652543   -0.38364951127124
H           1.62010263357004   -0.55907420235698    0.98559268715371
O           0.21928898797954   -0.13839140057783    2.13280873311368
H           0.05185819621121   -0.21327587097454    3.07369243448536
H          -0.46993426040565   -0.68138504523307    1.68237520671527
O           1.71617230926136    1.64631486892493   -1.05139465770131
H           1.97303574082141    0.76503524644477   -0.69120193397889
H           2.45056644868546    2.23764273088058   -0.88071779254225
O          -0.53099400781875    1.77337665724396    0.34689355726825
H          -0.23993687225433    1.23306847965199    1.10756832770886
H           0.26075871925953    1.85724630042685   -0.24038238121834
H          -1.45269289739361    0.97608656437469   -0.39060910916131
