    19
        -40.91628511
S          -0.37674376034216    0.68809877925105   -1.01827326658340
O          -0.59834884628843    1.28901554591061    0.27888340949764
O           1.02132419449053    0.06185722426982   -1.03445434926864
O          -1.35456015468054   -0.26404713979307   -1.43396837166543
O          -0.30028024413989    1.80382897650127   -2.08630296934759
H           0.12341927784424    2.58641730431953   -1.65096630655306
O           0.40899816306255   -2.60248734634690    1.68422702901559
H           1.04385722233322   -3.30307106677892    1.52386998667681
H          -0.25254333955592   -2.66601913079142    0.95865104788634
O          -1.31622426629090   -2.71779993617197   -0.35762982547346
H          -2.23998565794189   -2.90399577496900   -0.17816261061823
H          -1.30478545173752   -1.86720060820481   -0.83743641915096
O           0.51322303628857    3.59177731110332   -0.38043595276093
H          -0.04726389907746    4.36334282482862   -0.26845889949515
H           0.14853514724214    2.88790953064667    0.18895738736190
O           1.42124310939101   -0.18534868093218    1.41968457821846
H           1.32737652813117   -0.06858924695786   -0.04880874040425
H           0.68829541179567    0.40907470102907    1.62413479762322
H           1.09446355947866   -1.10276325684959    1.61648948505383
