    19
        -40.91966066
S           0.50170281191413    0.09509443419790   -1.63436275470055
O           0.14945726238319    1.48386629850525   -1.38226604764872
O           1.79217662039881   -0.23604531957748   -1.01061118665555
O          -0.53172569561354   -0.83338800056399   -1.24832401478744
O           0.72030740287243   -0.05306458995383   -3.18623768003227
H           1.39803643848441    0.59046606963240   -3.36885433523887
O          -2.23614949080590   -0.10961105543933    0.79410579390954
H          -1.82319053468756    0.70551098509512    1.10152801546723
H          -1.91593213193218   -0.24024047605527   -0.11357744564600
O          -0.09169517485387    1.73090155340326    1.15548234992010
H          -0.04087158451520    1.71719792872844    0.15559723345196
H           0.22940642776735    2.59187147321377    1.43006023619983
O          -0.54979220470797   -2.10859038561632    1.15586833618577
H          -1.33372502936741   -1.52148861718840    1.28876103564574
H          -0.50152925699033   -2.18341669275835    0.18861210458117
O           1.28628748323388   -0.43689912225886    1.39610846878068
H           1.62402189088127   -0.40223887606922    0.38816618009227
H           0.77490948650009    0.42923029742895    1.49206438838776
H           0.54830527903418   -1.21915589471805    1.39787931208765
