    19
        -40.90738845
S          -0.43652966763586   -0.31143144930670   -0.15293587227080
O          -1.17892378109659    0.51301102052741   -1.06174145117007
O           0.94721984861252   -0.47278378388693   -0.50226709905703
O          -0.58355862524700    0.22531853072169    1.27489160775916
O          -1.10486525552374   -1.71249361248774   -0.01773827556052
H          -1.07291504950269   -2.08582394628741   -0.92718035672073
O           0.45011288236488   -2.17770067174017    2.47568004889866
H           0.14638773437944   -1.28471535882253    2.29155609715441
H          -0.07365279885122   -2.75282820197520    1.91445992402614
O          -0.54913325153537   -1.74984827008518   -2.56884278215930
H           0.39871703775594   -1.60901318005904   -2.47437472754931
H          -0.94470882744466   -0.87502509946295   -2.66479304492954
O           1.84861668257940    2.03465331606222   -0.05730863790229
H           2.57210090151143    2.00303659825368    0.57285928904228
H           1.66969409490497    1.11207724983899   -0.31531326090759
O          -0.62211437406378    2.65540815306090    0.69763135041485
H          -0.66930845862007    1.26518988045080    1.20415869630223
H           0.32729634365852    2.67741422580543    0.43023851939267
H          -1.12443544624918    2.54555459944022   -0.11898002478886
