    19
        -40.92003360
S           0.01043620564841    0.02712301051105    0.87885055956255
O           1.08231696867996   -0.31949015714721   -0.02403035800370
O          -1.19969587820151    0.40934340070996    0.19599593216869
O          -0.25400374894331   -1.13950307237138    1.83367389489608
O           0.45387499401191    1.12828908960100    1.84420452343740
H           0.69190766534769    1.98280154291364    1.33732891403245
O           0.45700574626510    1.67733333887664   -1.71896178829802
H           0.84084926731359    0.86684304875711   -1.34113940074210
H          -0.49516630905614    1.55819490998583   -1.64265555650754
O           1.11277477016416    3.10765118386240    0.38851695887406
H           2.06724843419926    3.21408319436561    0.38918919855638
H           0.86934734414683    2.73192763631527   -0.49792994872813
O          -1.85144877311469   -1.87955724571484   -1.03496863423432
H          -2.75260277013291   -2.12254703039924   -0.81273854982236
H          -1.70900512478323   -0.98453819071499   -0.67078936646403
O           0.25936005767102   -2.97580747052498    0.17818547981933
H           0.98622703416870   -2.48754720191250   -0.22705190144609
H          -0.04337084994897   -1.99748667493998    1.31083490597193
H          -0.52605504349207   -2.79711330219696   -0.38651485302601
