    19
        -40.91983419
S          -0.32814798745801    0.84467042880786   -0.08508738355421
O           0.02001014078410    2.17488654604700    0.58044070640486
O           0.84642586321403    0.25694857026808   -0.67241188933195
O          -0.99321107189451   -0.02482658285560    0.86076995554591
O          -1.31532131346273    1.25096995821967   -1.18499229639300
H          -1.21686364027124    0.55724222052945   -1.93505263353958
O          -1.81099346167593   -2.09077824647919   -0.65575294920963
H          -2.75643750263249   -2.21138065807376   -0.54508880335991
H          -1.53863454005146   -1.42727608362238    0.00598920461408
O          -0.80775738497663   -0.70023372139352   -2.70528420476608
H           0.12855949778778   -0.68483765396662   -2.47151434914889
H          -1.21179651678089   -1.38640469825924   -2.12768088154412
O           1.17821634519189   -0.49202409558780    2.40884842153430
H           1.45377096422244   -1.38122110423587    2.17603643345516
H           0.29914772531443   -0.36682776746834    2.01150165227431
O           2.38776341245938    1.57646158321911    1.21443400866544
H           0.99770857102839    2.11299740833942    0.89416283768924
H           2.13071812919608    0.87428736466279    1.85222685096902
H           2.53684276001565    1.11734654179467    0.37845530971098
