    19
        -40.91620835
S          -0.06461518632864    0.16695160247959   -1.08121448844000
O          -0.91057174287034    0.85314208058705   -0.13931704554017
O           1.30563761748486    0.59599360702954   -1.08277603286705
O          -0.14759713560249   -1.33385900163465   -0.86760482266235
O          -0.65601701855231    0.33881366752494   -2.51597509832545
H          -0.62286722027733    1.30222720431683   -2.69062684314730
O          -0.16696397062019    2.85803075956213   -1.92703840272380
H          -0.62044792564661    2.69956188794292   -1.09024841525505
H           0.76839719963859    2.70708801880572   -1.75457399332754
O           2.13277236982293   -0.87089542948028    1.03537690656061
H           2.35395539518307   -1.71193385217643    0.62933715588047
H           1.96270482051386   -0.25653433276186    0.30056030645584
O           0.01791727468665   -1.08305004465566    2.69765223410453
H          -0.03932916934925   -0.22961704052439    3.13112178283475
H           0.83297074915621   -1.05368651189452    2.15210058884087
O          -1.87538680556352   -1.45739567139292    0.90720958203376
H          -1.25903619706202   -1.46533465403273    1.68633887840869
H          -2.09339837026389   -0.52399912732055    0.77248224637579
H          -0.91812469434676   -1.53550318236884   -0.16280454920284
