    19
        -40.92161572
S          -1.02591148348282   -0.27978771087214    0.07902570809129
O          -0.96087624129910   -0.18811311360610    1.51931382723822
O          -1.00577377733270    0.97562116236985   -0.60870223963942
O           0.10359702704292   -1.18839485054152   -0.40610052638062
O          -2.28975532749246   -1.06549900865083   -0.32806975738052
H          -2.25720190322577   -1.88374818378218    0.22921342572384
O           0.93367963293328    1.65842252877998   -2.35618138809253
H           0.84093104942725    2.56042009691885   -2.66683125202235
H           0.12527476685823    1.44795843134626   -1.85378736836558
O           1.01420163056480    1.65196253533528    1.38498985376572
H           0.52717754248248    2.35144582130844    0.94222852993531
H           0.33925465900862    1.02153897987723    1.68805420228264
O          -1.52999524296845   -2.82304149009946    1.42969733024748
H          -0.71748026081040   -3.19653491829259    1.07659021274933
H          -1.27962965590186   -2.01143405982253    1.89975173621521
O           2.16902414084028    0.17161253888316   -0.50696920725112
H           1.05083595523293   -0.67129509058305   -0.47597835771732
H           1.98569105261135    0.70759766184509   -1.30618198217072
H           1.97695643549584    0.76126866958380    0.25993725264293
