    19
        -40.92315430
S           0.71574516540259    1.53700902305333    0.09102961272037
O           1.94593964494336    0.78600804592183   -0.17227033936339
O          -0.31509581308328    1.17058176650772   -0.88205930931523
O           0.24450410001236    1.42119191511593    1.44480190065422
O           1.08346656093738    3.04578714588513   -0.16997857775062
H           1.67785714185076    2.98898398322378   -0.91160502449684
O          -0.24402398316115   -1.12612049386307    1.84082105049865
H          -1.10155670777707   -1.07923249208980    1.36583972204076
H          -0.00175754952800   -0.17995795101654    1.96220374416235
O          -2.20960381304301   -0.34813931149631    0.19521427182246
H          -1.59736825732154    0.32205582961143   -0.18221728040808
H          -2.91830636995594    0.14467928795547    0.61126253785758
O          -0.33626421769671   -1.29634098769082   -1.86098192297197
H          -1.21853414643248   -1.55387860851608   -1.57321210155671
H          -0.30120964954893   -0.32279295500714   -1.73334728479121
O           1.36218999626455   -1.62487563025297    0.00155974440923
H           0.71957751595465   -1.55046481397988    0.85329540795734
H           0.73405296631721   -1.67266880607970   -0.81176162504114
H           1.76038742586526   -0.66182492728310   -0.06859452642504
