    19
        -40.92096382
S           0.88145639178090    0.31252572788603   -0.16389063068312
O           2.25673904619036    0.70209543052007   -0.17345102248942
O           0.64249854398766   -0.66378606569300    0.96892120191574
O          -0.09224591706458    1.37252927912085   -0.11928435348892
O           0.57981892304057   -0.50588465777837   -1.46600585267718
H           1.40962936007612   -1.01508216785929   -1.64860582860771
O          -2.18932604695181   -0.03820308794090   -1.11033891485169
H          -1.55943806385171    0.67292545703176   -0.90495103935528
H          -1.76864392269184   -0.56812659418221   -1.79148164820034
O          -1.54118530746037    1.65461641842698    2.17972148773967
H          -1.06254167379041    1.77618602885639    1.34164953022319
H          -0.95537812801993    1.95110458534488    2.87800524794244
O           3.01576677728630   -1.38586081209481   -1.59002740862309
H           3.55914256247211   -1.14567099526186   -2.34482291480162
H           3.09773583338357   -0.66095075137010   -0.94126231794819
O          -1.78772580568458   -0.87981906275281    1.37597838458365
H          -2.15173128669566   -0.71124248324838    0.47420414811407
H          -0.41153593926959   -0.82946981899661    1.17150096231123
H          -1.92303535674532   -0.03788642000281    1.86414094885896
