    19
        -40.92246912
S          -0.56917527552939   -0.29418842474704   -0.85769464100458
O          -1.58837902433142   -0.86582749655163   -0.00878897101149
O           0.63359066524079   -1.06283219441063   -0.96725561375337
O          -1.15016634022602   -0.05485451764755   -2.26827946926326
O          -0.26153562840960    1.12269531217223   -0.37935815895836
H           0.42680165554267    1.13859599474525    0.47723850341010
O           3.03364042044702   -0.24377941022868   -0.07288426059192
H           2.25575410715619   -0.67529149738779   -0.47456736860721
H           3.51905427426277    0.16523002558556   -0.79119383016403
O           1.29822214885214    0.96936575481897    1.52243878113360
H           2.11388017439271    0.65070213773466    1.06794841406198
H           0.91559760088158    0.16458834622065    1.94883247493922
O           0.15537289180220   -1.37422933067316    1.98942351849366
H           0.72040684633900   -2.04626467984927    1.59999807237976
H          -0.61781714054057   -1.30358886485292    1.40383485088746
O          -3.14241034091792    1.07516394388381   -1.03719733730508
H          -1.99965151263272    0.42408793352413   -2.09809495075215
H          -2.96707190984432    0.34417734458648   -0.42247514450484
H          -2.77611360248164    1.86624961307971   -0.63192487938855
