    19
        -40.92246926
S          -0.54755047602383   -0.85698087421644   -0.33290793043008
O           0.07312826694569   -0.77150307707365   -1.63434472490361
O           0.53704659715349   -0.79800030622551    0.73957434125278
O          -1.56375100524399    0.11881023389093   -0.07797111360572
O          -1.13914671710410   -2.26994895456404   -0.13752298148436
H          -0.39768936745846   -2.87579831424642   -0.38895555942740
O           1.17341907903554   -3.13160790711645   -0.95703314759621
H           1.07284233467204   -2.36082635048230   -1.53912336279859
H           1.79736899147567   -2.87635904629878   -0.27165642218189
O          -1.37192848577439    2.03702388332188    1.79578840976462
H          -1.61332560115013    1.39396971327905    1.10225192899770
H          -1.79602904595944    1.73975925765066    2.60245207080736
O           0.44438601974590    1.89596434013902   -1.44255838793584
H          -0.45751640766699    2.22624942493015   -1.44478448505120
H           0.38863181645511    0.96654617469946   -1.72352029004880
O           1.13904476699916    1.56499271353622    1.09136761676735
H           1.07797391622034    1.86392482579539    0.15159229369375
H           0.31604270340787    1.90344516325341    1.51781597528924
H           0.86705262427442    0.23033911964655    0.94953577890458
