    19
        -40.92136404
S          -0.75241147148644    0.92315122345359    0.71014781100892
O          -0.87424687141089    0.79511807249971   -0.75285496444221
O          -1.96383105185164    0.54621662016924    1.39515517840513
O           0.43528480339806    0.25157940757036    1.18769731560632
O          -0.53282028568337    2.47401659249339    0.97041741137623
H          -1.41333083505123    2.81779741539728    1.09190836094144
O          -1.32706385055520   -1.99745681652794    1.12964505628607
H          -0.61776302518152   -2.06766975993078    1.77464897346561
H          -1.73378776733945   -1.11547791735361    1.28803351699306
O           1.94989792796081   -1.01455257564881   -0.53477723435697
H           2.12151328159797   -0.22457756181487   -1.09358519160671
H           1.60483316725867   -0.61609369645746    0.29685076464750
O           1.62256531133722    1.45199196393349   -1.48825770213162
H           0.66522298870941    1.34052542672194   -1.33527101231444
H           1.90476686515751    2.15479668591447   -0.90032628616283
O          -0.35864698713110   -1.61867381871299   -1.20113121543101
H           0.71084150238530   -1.49560645661753   -1.00140501070784
H          -0.77086951602667   -1.96516277285278   -0.33047717318297
H          -0.67015415689755   -0.63992205040815   -1.20641859990888
