    19
        -40.92120610
S          -1.34253336281034   -0.31512224274528   -0.00945890713841
O          -2.31697603271300    0.55090909708366    0.59487846695069
O          -0.75842703822115    0.23470797995624   -1.23328899203946
O          -0.30999955105281   -0.80936224394426    0.88682858649965
O          -2.12283204513832   -1.62862244305202   -0.47593781793716
H          -3.00173016745018   -1.32015995242228   -0.67529536110420
O           1.71255773289208    0.13189631589610   -1.26025283769784
H           0.67511901642719    0.27569670102759   -1.37310788784790
H           1.75269037555956   -0.87298337175070   -1.12896108733415
O           1.19950306522571   -2.30240386501668   -0.64633256460266
H           0.61421321215256   -1.91674825447907    0.04569001085049
H           0.62729314206710   -2.80151095220467   -1.23215634687817
O          -0.48154940085186    2.45804063592733    0.93421708386695
H          -1.19643990593036    1.81171416769357    0.77538367188223
H          -0.83483252552788    3.10393996186498    1.54970343646678
O           1.70170514243970    0.94289086210281    1.09974281011425
H           1.87283136128019    0.54594130068670   -0.28939570823346
H           1.08666864400249    1.70693742088230    1.07088076323618
H           1.12273836765088    0.20423887256659    1.36686267109762
