    19
        -40.92174067
S          -0.15934785305896   -0.88077074050524   -0.03222865399293
O          -1.31402328170481   -0.51805538716910   -0.82672618380659
O           1.10153485873596   -0.65236224487943   -0.67492440388349
O          -0.20840108135703   -0.17889871489299    1.31231929485769
O          -0.26640738001356   -2.37572080462584    0.33900274905537
H          -1.22787594452369   -2.54117701676264    0.51960010271270
O          -0.21088305522809    1.85626538997261   -1.51327588463426
H          -0.77898426486709    1.07520057980414   -1.40878870907805
H           0.57097205860097    1.55098039919804   -1.98095266810800
O           2.92591447802894    1.07265466804008    0.29490298031442
H           2.39477949992689    0.39006516075748   -0.15751470850662
H           3.51054149432392    0.60800107669191    0.89598141085526
O          -2.86110143369000   -2.30113345803710    0.37126338551491
H          -2.63774639549799   -1.48627713973342   -0.11563357514951
H          -3.32511186373919   -2.87546441849485   -0.24321793308374
O           0.59379875455168    2.13693181098356    1.00164742564337
H           0.23145848951505    2.29716404743064    0.09827212116743
H           0.10765327134263    0.86068740521423    1.25789362537983
H           1.55322964895685    1.96190935691735    0.86237962461858
