    19
        -40.91628504
S           0.94389474626727    0.74177188311791   -0.45871632241719
O          -0.06563215567569    0.32451303859464   -1.40720472863413
O           0.24908019931769    1.16848420861901    0.83837972454275
O           1.96836318907454   -0.21280573430069   -0.18542763584312
O           1.61278123785335    2.03900693122845   -0.96997186419747
H           0.91045321814319    2.55473722283429   -1.44131870021891
O           1.41640515288214   -2.30068771895223    1.40165390296579
H           1.81950680330367   -3.04467969360557    0.94981981542953
H           1.68083636557436   -1.50788190849920    0.89634136829796
O          -1.23646682721832   -2.27428658933179    1.75105878649339
H          -1.37073653522806   -2.27275455512252    2.70055654945805
H          -0.26325716647315   -2.32563556030458    1.61573990858163
O          -0.48079435219564    2.76184140514639   -2.33520398622437
H          -0.63815144252304    1.81311987080758   -2.16855097753540
H          -0.36009269094687    2.86523185167727   -3.28216285471929
O          -1.93383651731371   -0.02032801336321    0.57933286982885
H          -1.76731896434027   -0.17406191369811   -0.35925884207722
H          -1.77947165073385   -0.89114269142294    1.03189755121404
H          -0.70556262977986    0.75555796656389    0.84303544494252
