    19
        -40.92453851
S          -0.03235324140908    0.58710523181555   -1.40590723510300
O          -1.22308626567207   -0.24244964043545   -1.26129125051628
O          -0.05872338016938    1.69964593895203   -0.46255085376691
O           1.19244419659424   -0.18066213077921   -1.32466024354353
O          -0.07374296127242    1.21057438054207   -2.85654525581525
H          -0.88877653555080    1.70290096776913   -2.89032212255457
O           1.97661052332253    0.58657347274203    1.02939491912876
H           1.60713743685590    1.47718811559153    1.00083419956260
H           1.89350528842844    0.27245318208193    0.09566136425422
O          -1.67408624033053    0.68103773966563    1.28963608333541
H          -2.22949848620700    0.18245364903431    0.67888295326439
H          -1.11303944863460    1.23784810927327    0.69175569611292
O          -0.08298257080371   -2.27999105594510   -0.11712180913450
H           0.76207536730077   -2.24433413178070   -0.58018195974896
H          -0.64765179442539   -1.63729892064492   -0.61501929590860
O           0.16895276827212   -0.89482946960710    1.97343650824414
H           0.99484157009717   -0.30609873311679    1.71485528098498
H          -0.65176318376056   -0.26071362620402    1.84245701792523
H           0.08013695736495   -1.59140307895738    1.19668599328189
