    19
        -40.91209436
S          -1.70833344625378   -0.60403317468654    0.69799776541467
O          -2.43683993935942   -0.96185248878778   -0.47559565716318
O          -0.52360378122290   -1.34770364437886    1.00667260653239
O          -1.40047293440816    0.88727760254408    0.68906335237336
O          -2.68452249535166   -0.77450784023214    1.93133470024640
H          -3.57089936077603   -0.57362345086469    1.63648304426634
O           1.40807136639082    0.46521445157799   -2.19767076496592
H           2.07090252852884    0.16931235040915   -2.82433920947468
H           0.82711133380461   -0.31246172483341   -2.03731348459332
O          -0.07959717091293   -1.69912197843644   -1.66886348690523
H           0.08490482577500   -1.88079246370318   -0.73413268928817
H          -1.02681353746078   -1.51227595640800   -1.70713823191919
O           2.35856269226086    1.55152345130955    0.04328793049269
H           2.33796912969091    2.49584748442722   -0.12127672743808
H           2.01187826218710    1.12681937002994   -0.77648149654149
O           0.71575282814294    0.88329364619753    1.97204843618783
H           0.72765687969472   -0.08345046909458    1.99316301541553
H           1.40892101205502    1.15314590815909    1.30606639169966
H          -0.52064817276566    1.01738893679587    1.26669451567722
