    19
        -40.92123220
S           0.28860707044742   -0.81785043184756    0.84355064175691
O           1.23122840704091    0.14948759108878    1.30317461394009
O          -1.10135269206089   -0.49236461931881    1.09339894537993
O           0.44949500477534   -1.08185590608756   -0.65322475369229
O           0.60707923948686   -2.19199548089352    1.46863513488674
H          -0.11079352146773   -2.78252217078982    1.13188685968332
O          -1.53499995170217   -3.00961223362977    0.23460013218258
H          -1.81441693565410   -2.12404356874462    0.51790091807600
H          -1.28397176988409   -2.93538236559348   -0.69067667648105
O           2.35647799661364    2.04585697072319   -0.24088882557457
H           2.13237584435607    1.35070416019060    0.40556156079885
H           2.15964469548884    2.88055328647075    0.18984667612108
O          -1.45582254012136    1.88118234375872   -0.09209551135483
H          -2.39322004012098    2.03900496555987   -0.22065224287085
H          -1.38133913921447    1.08291517919544    0.46633935215444
O           0.44140448670706    1.10606072501395   -1.79448883696301
H           1.25187492143456    1.52572270502758   -1.40913011468896
H           0.47059236169016   -0.15358349926557   -1.22935105234194
H          -0.31286343825625    1.52772236920416   -1.32438682100289
