    19
        -40.91498391
S           1.00880958722762   -1.04739307419128   -0.96905213306843
O           2.06822398939784   -1.41715213119450   -0.08753701470330
O          -0.24972924102010   -1.83460565287292   -0.66657608982995
O           0.70703733431408    0.34878311734600   -1.10196628352938
O           1.41228033123064   -1.54054208126768   -2.41727292397812
H           1.88044507473355   -2.36777686104806   -2.32192102382179
O           0.41018944244638    2.26569467737066    0.78527749384029
H           0.75016040360957    3.10737758139747    0.47851226332701
H           0.58038952297400    1.62058666801203    0.07493856493894
O          -1.86731655288271    0.76431569511326    1.36001781462204
H          -1.27465702200132    0.10059006570038    1.75108394005508
H          -1.30174175296621    1.54613309450862    1.26376288953414
O           0.52674534000923   -0.42375218810589    1.94311922654750
H           0.86539496640051    0.47701551074759    1.99280559163842
H           1.16305869287434   -0.92670592962326    1.42038786968670
O          -2.01633664011203   -0.15291573700544   -1.05269133509718
H          -1.44333502021685    0.48151882059657   -1.49904487979239
H          -1.09561982894050   -1.20005397621270   -0.84151491720439
H          -2.12399863708876    0.19888241072586   -0.11232905316150
