    19
        -40.92079102
S          -0.86469022034697   -0.90730935499185    0.79792893159822
O          -1.07423572597633    0.51581880111262    1.07189404163228
O          -1.88211318020051   -1.46086419673818   -0.05797375768381
O           0.49738082378671   -1.15943872300636    0.34843519989048
O          -0.97763149753142   -1.63953053544301    2.19650413303109
H          -1.90171315874452   -1.56194001298670    2.41227162527111
O           2.34675253083672    0.32471397011075    1.46880134927923
H           1.70162638588763   -0.36974559542657    1.19585131891820
H           3.19837790620275    0.06119664505979    1.11444906785030
O          -1.73038677832739    0.09577968482526   -2.18825015420783
H          -1.88870848129632   -0.45839236569611   -1.39338373097122
H          -2.13257472445830   -0.37100721831087   -2.92324169557017
O           0.84497284515052    0.44782651421681   -1.75004486347600
H          -0.07235562277838    0.44348875087440   -2.11157966538241
H           0.86719375445799   -0.33316864827039   -1.16068625681381
O           0.77765611440020    1.93658263138211    0.24802575345982
H           1.51938442581029    1.51016015343239    0.79419883764525
H           0.85061039559283    1.46089261665811   -0.70348108445628
H          -0.07954579244693    1.46493687326673    0.64028094000978
