    19
        -40.92079119
S           0.00104702919344    0.49288482945163   -1.40177676492650
O           1.27320542957925    0.19026296399848   -2.00535157133744
O          -0.81750883028812   -0.70195142129890   -1.18699233538735
O           0.09024484713924    1.29186149572475   -0.18736560588936
O          -0.80235543772829    1.39174068062643   -2.42719182341469
H          -0.73444099687439    0.90751242945615   -3.24410814814810
O          -2.07446616967153    1.34121973047511    1.29275077145439
H          -1.33776804352554    1.49836927029878    0.65595358384502
H          -1.90592156395567    1.90510919339851    2.05030262297731
O           2.30383775240844   -1.54727826004933   -0.30141798637885
H           1.93710186555902   -0.97383243365258   -1.00897672737771
H           3.25305910484032   -1.56496720731529   -0.43768419603271
O          -1.32609339096195   -1.10461450705079    1.20180496750823
H          -1.18551589336100   -1.06668366312191    0.15795636286245
H          -1.80787059990312   -0.22900125764522    1.37992234156839
O           1.01053030500418   -0.37811618156473    1.67547410163177
H           1.58755599093579   -0.94673620568869    1.11330121921712
H           0.86703489256463    0.42112716036381    1.12915677294733
H          -0.33167628841077   -0.92690661430335    1.54424241602884
