    19
        -40.91864566
S           0.95245749171482   -0.69519278072699    0.04973141598273
O           0.84177689364001    0.36660025862082    1.02216319863610
O          -0.27461321995849   -0.56923479099236   -0.91793548373322
O           2.14009858142888   -0.72927477502419   -0.73018402332531
O           0.68664386814465   -2.03308330915815    0.73826551237335
H           0.06192216555648   -1.83560435551538    1.52973517877489
O          -2.59906243733943   -0.67309575330176    0.56299255056958
H          -3.17148208240802   -1.36052106099442    0.21671025921144
H          -1.87237761439582   -0.56728939231785   -0.07198644881880
O           1.02473636567830    2.55348973737643   -0.53326615972482
H           1.06076065700781    1.84387311983398    0.13536477501092
H           0.36622213196042    3.18212895624844   -0.23071731440857
O          -0.84996221238085   -1.15521627689420    2.53930761227702
H          -1.65413227336558   -0.98128865811533    2.00354741171699
H          -0.35448884181139   -0.32498226632111    2.54214721516576
O           0.88600609083703    0.88538409981995   -2.60566361687634
H           1.72782595562585    0.42096193538465   -2.51280445654823
H           0.06563211719384   -0.00420981731338   -1.71111529452994
H           0.96203637208298    1.67655509649706   -2.02629234018954
