    19
        -40.92453849
S           0.48426549303566   -0.74276198447778    1.23978380839632
O          -0.59034090644072   -1.53021185158131    0.64541468198203
O           1.61922887206210   -0.64493665989999    0.32913582635262
O           0.03196267444014    0.55191162145066    1.70412865428966
O           0.98039488234795   -1.52768778787733    2.51746853813322
H           1.28139372120517   -2.36952834315054    2.18786125086777
O           1.30058177615600    1.84539861932806   -0.34775103656246
H           0.97830526308099    2.17911160745629    0.49758570604513
H           1.61080176838425    0.93035289455864   -0.13299259347575
O           0.04465299586556   -1.22825401700096   -1.84905481378417
H          -0.28700534688090   -1.50124890444281   -0.95590557690622
H           1.00216494666244   -1.20210925691367   -1.73679487945146
O          -2.16668646710322    0.71212789560728    0.33122665914900
H          -2.37233919765782   -0.23005301824405    0.31013529335613
H          -1.43883937075715    0.77470856863063    0.99751819653707
O          -0.72435325587062    1.16529542523447   -1.68565408939351
H          -1.43184789302032    1.06047095703174   -0.92154219582760
H           0.11919305355502    1.57278764910959   -1.21805058464668
H          -0.44153301912037    0.18462658517953   -1.91251285503304
