    19
        -40.91790589
S          -0.09084062726618    0.57481689236574   -0.84487307539065
O           0.44646459728666   -0.36840114302087   -1.78277525230095
O          -1.06633775211710    0.03094383057408    0.06498780878012
O           1.02979312828699    1.25665546922955   -0.08187637852639
O          -0.73721388491842    1.76699704310336   -1.61717686214088
H          -1.45172992842685    1.35665455939119   -2.14788479835640
O           1.96632937649324   -1.54784993802062    0.15553598450847
H           1.48936184059298   -1.29910273934897   -0.65126764638010
H           2.72870113240027   -0.96718634657726    0.20458055819103
O          -2.24776812435770   -0.19948628996053   -2.48160968488338
H          -1.47163459752296   -0.70238035429725   -2.75416362800972
H          -2.44034474043778   -0.47534153403414   -1.57866176843411
O           0.12794164110572   -1.27303536549669    2.15308143156031
H           0.88175673858593   -1.58514555610905    1.61909954731146
H          -0.56409450630009   -1.08293003047943    1.50181992016008
O           0.50909770296855    1.27575934044133    2.35732929149128
H           0.43047972411849    0.27645927603157    2.46094300394131
H           0.83981728545115    1.33930263942402    0.95589505823780
H          -0.37977900582612    1.62327022680406    2.46701650027512
