    19
        -40.91875242
S           0.94044469018633    0.31272651198658    0.21748689801981
O           0.66936150638333    0.30701173873858   -1.30161501493581
O          -0.20368987632002   -0.25319018997973    0.89943953174377
O           2.18101563488131   -0.33042779563000    0.51402830352722
O           1.04874458615157    1.80366585149325    0.53283023206198
H           0.21038015632476    2.29854350014052    0.24085628321435
O          -1.12974319961794    2.99919016041207   -0.06001756592186
H          -1.79168471041942    2.27435844947995    0.03558787845412
H          -1.33193662104994    3.65612979037944    0.61037055778506
O          -2.57603053883062    0.85010080976010    0.49396567179813
H          -3.12027270759548    0.66818684780173    1.26227294852075
H          -1.75173303828645    0.33187522161256    0.61100508498589
O           1.00633159859598   -2.74016480503923    0.71639473605386
H           1.71823518618087   -2.08839299748664    0.82559029598729
H           0.22894064340989   -2.29451216667710    1.07283146678962
O           0.78977832605922   -2.18668049497240   -1.85565118767254
H           0.81438612273793   -2.56262853616912   -0.93822029316938
H           0.66011012318491   -0.65176152508048   -1.62103226975290
H           1.63736209804624   -2.39403037071469   -2.25612355750950
