    19
        -40.90738849
S           0.09731030167648   -0.54843606088126    0.02486595795985
O          -0.64038871933419    0.18826088145068   -0.96311460107358
O           1.49345202935798   -0.69025781973861   -0.27074775087734
O          -0.07969757809899    0.06923766582505    1.41608975811590
O          -0.56121049984007   -1.94550498824300    0.23043953842754
H          -0.43700852653119   -2.40207623370478   -0.63185831516786
O           0.40135939762180    2.65446745972773   -0.60080364952746
H          -0.02618066774207    1.82721253196586   -0.88818646868828
H          -0.30788143740227    3.27274926419453   -0.41064415555121
O           0.22841756225029   -2.20569439150831   -2.24491975723834
H          -0.24997363243345   -1.44395817831521   -2.58853725806873
H           1.10464455868852   -1.88633281286608   -1.99763244697980
O          -2.86755364906636   -0.62950038548540    1.57339895453476
H          -1.99254436260040   -0.25339345902635    1.70178577745327
H          -2.72368464541566   -1.51957360633720    1.24615356221770
O           1.88980506270851    1.60370612806047    1.33371406350931
H           2.45865339918777    0.99218820135611    0.85025006194021
H           1.48895147371520    2.19508950431179    0.65348622836339
H           0.72352994325029    0.72181628923231    1.56626050062418
