    19
        -40.91966069
S          -1.64858535783426   -0.38810442879896   -0.25426651178735
O          -1.05256876138849   -0.98509334868826   -1.43935819354156
O          -1.39189443356361   -1.21844023225164    0.93267053653598
O          -1.24894461977883    0.98138750893205   -0.04419072560577
O          -3.20892555690886   -0.40214505618769   -0.46280947910739
H          -3.39701965877388   -1.32455144208214   -0.60649509281688
O           1.47510090281618   -1.04625808477104   -1.03118350678411
H           1.84671669021608   -1.84198017428802   -1.41661731083577
H           0.50562814534327   -1.03858023740999   -1.28131587621836
O           0.78982873937852    1.69091990038573    1.61387366185446
H          -0.16002945719398    1.73776071022162    1.41618471259755
H           1.20326196187687    1.93704243963065    0.75064298773821
O           1.21129030700775    1.79013121312122   -0.99106411069760
H           0.24929983648309    1.65722565701216   -0.96997153981286
H           1.58413310330383    0.94886326665495   -1.27869361564096
O           0.97448604668229   -0.79399562950871    1.48710373626057
H          -0.05343091730396   -1.03983127759644    1.36589202507836
H           1.34962104965380   -0.93283814006866    0.55920185015790
H           0.97203195077585    0.26848737531384    1.65039643364457
