    19
        -40.92221096
S          -1.05594593537516    0.00793665548713   -0.01229327032699
O          -1.85452193383345   -1.17709703175470   -0.03714967530166
O          -1.73787829789988    1.25847419404993    0.09594079774055
O          -0.03909531186053   -0.14958613411921    1.14824633310647
O          -0.15033376767388    0.07821050028920   -1.26424375355988
H           0.30474279138399   -0.82341693914171   -1.38620962352821
O          -0.28507424880692    3.47802168189873    0.08513402552446
H          -0.63999701798453    4.04929313140227    0.76907943333547
H          -0.92854332197200    2.74662323667925   -0.02094726392668
O           0.92652938611515   -2.22169053227588   -1.42013853856310
H           0.51599207320608   -2.74643572376406   -2.11140756315124
H           0.64262586675292   -2.63065978978598   -0.55873549783924
O          -0.14775936231560   -3.01482410728288    0.83838552432439
H          -0.94441740210639   -2.49673821095504    0.60829474174662
H           0.23775105531872   -2.56701529326676    1.59568368587520
O           1.59717915932755    1.69689075802662    0.55140058451671
H           0.65459710162767    0.58569260417621    1.02711052128227
H           1.89985505401116    1.44693266298511   -0.32591310343997
H           1.00429412208348    2.47938832734055    0.41776266219796
