    19
        -40.91892656
S           0.65947252562729   -1.04382049875518   -0.73189483165095
O           2.02894793876290   -1.07262368827802   -0.26554369690639
O          -0.28305356634824   -1.37503868136628    0.35336629108491
O           0.27405180071197    0.17685507202081   -1.39555887625291
O           0.50506076576632   -2.20806402987199   -1.79088799249248
H           0.99862296388606   -2.93425643842181   -1.42104258863136
O           2.12060023939292    0.93716007125044    1.37800385261407
H           2.75745792576233    0.72621838661525    2.06426877441006
H           2.19584849784912    0.22006432148793    0.69744811041777
O          -1.35514273680077    2.01472967488775   -0.15258964197236
H          -0.61847933271946    1.87819815714162   -0.76917479166707
H          -2.03951693646363    1.38684722092873   -0.47829861332979
O          -2.38252750481234   -0.23762069660119   -1.15574344797404
H          -2.34619532033730   -0.95092747720033   -0.51184233057735
H          -1.49081919083126   -0.20757672032697   -1.54136253297190
O          -0.38339295729947    0.68570253796202    1.73030869994379
H          -0.41611661470706   -0.24612334969190    1.24304188023892
H           0.61607146138447    0.90616569521147    1.71983320380365
H          -0.84088994879824    1.34411044297838    1.02766852193736
