    19
        -40.92267751
S           0.67589606706515    0.30085747645567    0.76600210913485
O          -0.50309403722145   -0.58390068053116    0.93960867836852
O           1.73826210918542   -0.42393766821777    0.08470326014194
O           0.30014815791763    1.52084433807626    0.08838133542946
O           1.15392004914396    0.66996428090014    2.19783005069572
H           1.42050561570827   -0.19888853574943    2.57234271178446
O          -2.05774572137274    1.89508311699011   -0.96389284241271
H          -2.65843274752170    2.21374761436619   -0.28741493697333
H          -1.15049167695536    1.93542384059731   -0.57211773174752
O           1.58911301523351   -1.91398493557327    2.32418909266174
H           0.66828245923702   -2.15847301726826    2.18594400170816
H           1.94117835393758   -1.71859982211416    1.44102359111791
O           0.63425307640557   -0.27706217253291   -2.28797375264840
H           0.74377893751387    0.65170249154538   -2.51011623425359
H           1.18375833886387   -0.41878713195356   -1.48050258816409
O          -1.65242507809185   -0.59869664549960   -1.22932865615220
H          -1.22660739632480   -0.69372317914134   -0.23367499651991
H          -1.99937404916335    0.36579253609514   -1.22545436819403
H          -0.80092549216784   -0.56736188645716   -1.80954871298151
