    19
        -40.92021788
S          -0.48219649987445    0.93659191626064   -0.13038181819357
O           0.47414715638204    1.55799520832211    0.73007659107615
O          -1.34547745388574   -0.03746038714582    0.51435283001775
O          -1.37046077898470    2.02709048749153   -0.76847335914416
O           0.19703907785874    0.29088152320770   -1.32384882726199
H           0.99579594037642   -0.39615949087837   -1.02895068128251
O           0.14910366739238   -2.15621580330039    1.21946657773870
H          -0.44362104796194   -1.38898955906416    1.10531090396446
H          -0.37990728179173   -2.93944558341415    1.05624767367929
O           1.95447528724310   -1.22692716695711   -0.49344289095602
H           2.52208801877412   -0.60794237883101    0.02900014931170
H           1.43323416033567   -1.73220466452056    0.17276687649691
O           3.02211728883535    0.72971410639226    0.92928168712183
H           3.55901814402215    1.41189171374040    0.52172886854852
H           2.12893129286295    1.10956356153808    1.03293940875503
O          -3.32862819563548    0.36178172641306   -1.17727113679791
H          -2.77205714810108   -0.08216974106372   -0.50929644337045
H          -4.15582144421762    0.59032636257711   -0.74619690693991
H          -2.15778018362782    1.55167816923252   -1.13330951276393
