    19
        -40.92174066
S           0.26567768657270    0.85244309144607   -0.07462552341350
O           1.27115944876707    0.49546285910614    0.90391096722816
O           0.37131781514752   -0.05399200363912   -1.28707085485326
O          -1.07665908814681    0.86785420505857    0.42833070364528
O           0.60240128650531    2.24924681018206   -0.64003996753592
H           1.59091668358553    2.27712335252704   -0.72010790396987
O           3.15432657146087    1.88519964011689   -0.33379564042930
H           2.77734624927642    1.18741604537825    0.23356080720768
H           3.61898937688381    2.49529738315589    0.24464919561059
O          -2.98877650714744   -0.77992874479777   -0.50629546714629
H          -3.44371994831428   -0.35467620281428   -1.23512895886138
H          -2.42748072920410   -0.09617985286476   -0.09384236479258
O          -0.19386702203459   -1.60504281416239    1.77952599022876
H          -0.97676563727690   -1.14588845204084    2.09486710335824
H           0.47707579497240   -0.91722974659038    1.63662261850295
O          -0.74754321692694   -2.19008292267328   -0.75045199774682
H          -0.50967324624937   -2.24367939399244    0.20544450709238
H          -1.68638699776449   -1.89203168105690   -0.76162971330965
H          -0.07833852017150   -1.03131158231224   -1.12392349081706
