    19
        -40.92135405
S          -1.55713860775406    0.05092666103208    0.09507958144974
O          -1.37703928329758    1.08864255283048   -0.92114760407070
O          -1.47833061724576   -1.27900897227316   -0.46790020012186
O          -0.66238031661335    0.24995006779061    1.22426761753632
O          -3.01841612300209    0.23426776224117    0.66183014321415
H          -3.56583648609973   -0.00022550502937   -0.08119499079512
O           1.38834682173610    1.86760326259739    0.80420817544682
H           1.13289947343748    2.77279701726911    0.99143973651482
H           0.65046317905676    1.29715474097906    1.11841553887010
O           1.01754634925224   -1.43743419929649   -1.24931556677920
H           0.04274788271213   -1.53836343487630   -1.13807408950576
H           1.36335266242769   -1.60722183774716   -0.34063406907746
O           1.19863210611198   -1.68738227898924    1.37575890079790
H           0.51948838029005   -0.99109565451820    1.46884960337365
H           0.79822658710554   -2.49682197005207    1.69774595874821
O           1.02441267328790    1.01623278530181   -1.57398240605056
H          -0.00214353490257    1.12408600131289   -1.45408844674399
H           1.37983616184344    1.40354908294594   -0.70229527451229
H           1.14533269074771   -0.06765607202426   -1.50896260842561
