    19
        -40.92022157
S           0.67585468830490   -0.16647034121348    0.60630834988846
O           2.12277028633691   -0.63415774178624    0.45090406729657
O           0.52107481934338    1.20727458639243    0.20208970280544
O          -0.19452347971143   -1.07551507458239   -0.10258804938003
O           0.44363538258454   -0.27556399759913    2.11718819685203
H          -0.24277136740995    0.44454471293585    2.36861633731294
O          -2.59678570143538   -0.10688398699898    0.60067999553208
H          -3.12796462489564   -0.83061583694390    0.93949215258673
H          -1.78712105031569   -0.50832297819176    0.23113627161697
O           0.81987117235979    0.78153952812071   -2.43996471029154
H          -0.07006159616665    0.81017223183622   -2.79783746809780
H           0.75586645788847    1.11568248201964   -1.52713289042835
O          -1.31669599195031    1.53271028112219    2.28247825740508
H          -0.86411507843675    2.12684587916224    1.67240327161616
H          -1.98099633350710    1.05374869845264    1.73743089083468
O           1.90772382496891   -1.59492715248109   -1.87887914066815
H           1.64295897400341   -0.74591218537863   -2.29987983719184
H           2.20884210297408   -1.07759553776288   -0.47065225761584
H           1.08243752502714   -2.05655354710666   -1.69179314006293
