    19
        -40.91015940
S           0.94779713797491   -1.60574664953403    0.45485067371332
O           1.36369641665970   -0.37371700630087    1.06638857777132
O          -0.48463810062411   -1.93707883141720    0.85728891222992
O           1.14883253195080   -1.70138094154248   -0.95331591917812
O           1.74046738301764   -2.77340489599142    1.14189728260216
H           1.69894060761865   -2.60552431459847    2.08092803955292
O           0.09630453059413    1.51979744107205   -0.36598610899570
H           0.50406594375736    1.39880454280704   -1.24568136601020
H           0.65691168072278    1.00481644049089    0.24206945566812
O           1.32422198189642    0.50261137195206   -2.53779151874565
H           2.24721301793637    0.59499885337928   -2.77965557288563
H           1.23846780022385   -0.37259350541276   -2.11947617371307
O          -2.06851626689999    2.02351771594077    1.44122456143830
H          -2.51936058891276    2.86834327386120    1.40411789808953
H          -1.23486811765268    2.13363087404384    0.96247435591478
O          -1.91948038575031   -0.18491674612262   -0.16160930486079
H          -2.36257538701924    0.29894571605963    0.55609040682044
H          -1.22322034079933    0.45348466871320   -0.46149434464684
H          -1.15425986471122   -1.24458798742884    0.41768015525137
