    19
        -40.92246913
S           0.61379404622133   -0.28065368473509   -0.83031124824093
O          -0.62765365347110   -0.94685418940261   -1.08453161785692
O           1.51783304892512   -0.98146973710107    0.05178186570621
O           1.32277317608700    0.00263060957839   -2.17261535726643
O           0.36969537713165    1.12174079898126   -0.27909739885859
H          -0.38274798305253    1.13429127109315    0.52313399113930
O          -0.41255424175219   -1.48461253264301    1.87063844463979
H          -0.99054732032642   -2.08508073820496    1.39321884413593
H           0.40834555112593   -1.43497194567810    1.35131081081702
O          -1.34405766927755    0.96394559481745    1.48394883388089
H          -1.05511736820117    0.10598025427326    1.87984666906119
H          -2.14108207586498    0.73851696578935    0.94754943195845
O          -3.02699188086572   -0.00489039969216   -0.32003050578162
H          -2.25206358592948   -0.46815407491344   -0.69108521047303
H          -3.42015255931383    0.48893269727755   -1.04148560042319
O           3.28355791734352    0.89713694026216   -0.71777503579624
H           2.18796060893178    0.40297279741098   -1.90558994640190
H           2.94156703663994    1.68645809947885   -0.28854661835875
H           3.00744156564963    0.14408127340408   -0.17036033188042
