    19
        -40.92079118
S           0.75432087006022   -0.83602806462016    0.96936657164484
O          -0.18524067062603    0.10093000475590    1.58826973834876
O           0.24482915128688   -2.18239447504824    0.92670033317576
O           1.22572943276827   -0.33401462851074   -0.31395146624370
O           2.03377006523268   -0.84773290037048    1.90101921504873
H           1.73077103644288   -1.29553913984243    2.68470546275684
O          -2.02598446667533   -1.87896321770661   -0.39082856064216
H          -2.27814051754687   -2.73456337313201   -0.74325604538776
H          -1.23892045237488   -2.03748181524027    0.17425427095039
O          -0.98376021750236    0.13895733279681   -1.72814947839173
H          -1.55949943726132   -0.57913697317210   -1.37421232439292
H          -0.08033490489608   -0.14101138649971   -1.47653219506336
O           1.56298442712977    2.26320851458228   -0.45284340369969
H           1.88890067857845    2.47658295942255   -1.32948972198592
H           1.63876182093156    1.28461310841505   -0.35488003426527
O          -0.92000568851227    1.89044850945199    0.04365335260235
H          -0.70616420102061    1.19271976636162    0.80375842969190
H          -0.00235985964062    2.28073258047088   -0.14599098196653
H          -1.09965707636886    1.23867317788886   -0.78159318218169
