    19
        -40.91593744
S          -0.71074513876074   -0.81091185049708    0.35325922600097
O          -0.76959604504347   -0.69145312671441   -1.07832998090821
O           0.48481111488091   -1.42104387722736    0.86461555049869
O          -0.92559063358476    0.54911625886328    1.00324484732464
O          -1.94925994294702   -1.61664204051756    0.85755038739917
H          -1.85128883091268   -2.50237564340667    0.45049959311799
O           1.95039626398464    0.80648354947390    1.33801711415983
H           1.61300471748561   -0.08937762805202    1.16425498939276
H           1.38951334517278    1.15487025949846    2.03557622395629
O          -0.78666150843406   -3.43889675191411   -0.64483692604550
H           0.05105573451708   -3.38214458065391   -0.17279454017839
H          -0.73807520451084   -2.78009780713890   -1.34831323417084
O           1.58772317386939    2.39611186122353   -0.80175953069525
H           1.81429682094981    1.78208218874357   -0.06808763981374
H           2.02605858053145    3.22623372658581   -0.60673412886731
O          -1.01059669445482    2.01578367187693   -0.99209122249643
H          -1.06565885021389    1.24131548960872   -1.57101994452069
H          -1.05236363190838    1.27131678706849    0.22975687788350
H          -0.05702328067606    2.28962952321605   -1.01280765186006
