    19
        -40.92453840
S          -1.50802006490358    0.20089137827632   -0.08929590748730
O          -1.09485479321700   -0.56507817876826   -1.26017348243688
O          -1.24804983026958   -0.54581768592476    1.13605033005981
O          -0.93168328204015    1.52879950323666   -0.06286256397461
O          -3.07222521850164    0.39410176243648   -0.19329907117751
H          -3.42862200455024   -0.48938996915597   -0.21041716089443
O           0.77476270345587    0.85928282699856    1.97089680413900
H          -0.02114421225258    0.28490112849323    1.84354844714266
H           0.48143330568064    1.72415652958592    1.66159489669815
O           2.16475706014178   -0.14841151186699    0.12503760303309
H           1.72121971653707    0.30134795709744    0.95958522446941
H           1.83543429332746    0.41604985901457   -0.69286905105092
O           1.02704940037306    1.13499132907043   -1.72179189982394
H           0.29157633797021    1.49121063662022   -1.16525058993555
H           0.59092186197144    0.47783188084622   -2.27715852233983
O           0.62376655741325   -2.12755941399558   -0.11017522286638
H          -0.04280262612673   -1.66854646444385   -0.68214177965171
H           1.66193045181791   -1.06010560114035    0.02923235099295
H           0.17455034319479   -2.20865598634823    0.73948956513481
