    19
        -40.92219807
S           0.26254358604369   -0.52917482679371    1.37413331604408
O           1.32886579351273   -0.49234074056814    0.25752758899356
O          -0.98376535848082   -0.01338736098743    0.82876564023393
O           0.15789413318557   -1.81672966541523    1.95892745504267
O           0.82949344126347    0.49280636487693    2.36853149604251
H           1.00927189915570    1.30953450352409    1.81713023620178
O          -0.67401986650172    1.61493166431176   -1.17103580650883
H          -0.91641001364606    1.02377666734122   -0.41966906481428
H          -1.41257456776979    2.21374476007505   -1.29657367693087
O           1.30402670788962    2.32336168756440    0.59284799646865
H           2.13237656198914    1.99512419183358    0.23285491575277
H           0.63744188579611    2.20368594599208   -0.11451569843540
O          -1.48392420386754   -2.35419883003137   -0.41194264489449
H          -1.06813086977878   -2.97867620523363    0.18898780623108
H          -1.62876220239728   -1.55527971641584    0.11803057470137
O           0.21978887073678   -0.98312272789408   -1.94479182286919
H          -0.47762901825294   -1.59341555863368   -1.61325048388015
H          -0.19421570510382   -0.11962115651055   -2.08777358889539
H           0.95772893617763   -0.74101898708611   -0.67818422845392
