    19
        -40.92315383
S           0.08707745289522    0.09743858861293   -1.69272176189650
O          -1.13030026935596    0.35507396911009   -0.92078948352170
O           1.09102890656267    1.12536441493241   -1.40609597265627
O           0.56585590304488   -1.24658755874807   -1.51265861681276
O          -0.28130695346551    0.28361904497296   -3.21237045814031
H          -0.27581006326962    1.23032154381126   -3.31294380717625
O           1.26230942869502   -1.45255778459908    1.00888448968269
H           1.20675477512187   -1.55861489512273    0.03205901384864
H           0.33161512208822   -1.56369919713576    1.29969798328751
O          -1.41415360772125   -1.36131539321562    1.08690386220529
H          -1.85563496742954   -2.17693037081042    0.84606429042412
H          -1.39775515514922   -0.81048557697436    0.27283433381064
O          -0.91680433523166    1.51085564247679    1.45898274074622
H          -1.32074866293437    0.81598187510759    1.98959238968959
H          -1.13199182809314    1.27827290094774    0.52896627905041
O           1.54209343248646    1.02413372141878    1.03683131265915
H           1.53877619805960   -0.04063031391668    1.13452576503644
H           1.48413053358502    1.15870874301791    0.00245772180356
H           0.61486406012503    1.33105066613488    1.35977993794983
