    19
        -40.92079092
S          -0.94588129446913    1.11965126205971    0.24440096503773
O          -0.26442648727472    2.36795609155862    0.01672924952577
O          -1.19699499053988    0.38236715678181   -0.99538319924953
O          -0.31484324189867    0.26661860327188    1.24210993870355
O          -2.37009351183950    1.46595569219466    0.84144648942371
H          -2.70242074225996    2.13102567259914    0.24670832076825
O           1.91856524282346    1.59016046882652   -1.25381361667064
H           1.09048506972518    1.94360497815259   -0.86222503256522
H           2.57142898746358    2.28799244490212   -1.17288348180689
O           1.86604172364204   -0.69870889124532    0.05178820283483
H           2.09268112755203    0.07108728926096   -0.52135751319233
H           1.25828363096554   -0.32145218434868    0.71982891771717
O          -1.10439314711581   -2.23472101803110    1.24836767042014
H          -0.95214437068918   -1.27097359031263    1.39306932331287
H          -0.63975473266015   -2.69338072791465    1.95125170548158
O          -0.06625066341105   -1.81892139505223   -1.05387126972775
H          -0.59381409844247   -0.91470009517125   -1.17430805307026
H           0.86862348863682   -1.45842488775308   -0.68758294192290
H          -0.51509199018468   -2.21513686981229   -0.23427567502436
