    19
        -40.91930887
S           0.46663957727555    0.18097205159894   -0.72297716978434
O           1.58701695188537   -0.51976027558760   -0.14403825482840
O          -0.78918207322484   -0.67020357315626   -0.49444236800062
O           0.24030516495648    1.51680365384993   -0.28036046853090
O           0.64282425894848    0.19350068114558   -2.26354507935561
H           1.08140755755562   -0.66150513481311   -2.50861862365264
O           2.03027992203999   -2.00525627415084   -2.29318752686804
H           2.92840905002729   -1.94291647862290   -2.62798808292534
H           2.06029952215244   -1.75382582112814   -1.35184130953756
O          -1.03318562856167    1.73977907083153    2.15203852267162
H          -0.42481213676020    2.07650804900111    1.47967563486273
H          -0.61306002263457    0.91904875153588    2.46882854780988
O           0.24172503428833   -0.67496934870971    2.23527896745760
H           0.89661984925163   -0.64346526220401    1.52246739897461
H          -0.35341300821346   -1.39730066520494    2.02155287232917
O          -2.60342758907619    0.87880886026278    0.26880595208948
H          -2.14797161110961    1.22359134854222    1.09570845201828
H          -2.61061653342875    1.61573703702523   -0.34726829000992
H          -1.59985829537718   -0.07554667019466   -0.21008918471028
