    19
        -40.91915213
S          -1.17865705615144   -0.23146207940384    0.31215232171104
O          -1.04641699545061   -0.12956513945416   -1.22354483905405
O          -0.11049656384794   -1.07837962004733    0.79242187708187
O          -1.25958866828054    1.06187848004634    0.90029214258417
O          -2.52313116967520   -0.96893111718508    0.46014097264011
H          -2.35141598916556   -1.86791722626861    0.08203754753279
O           1.11673088203546    2.38500423808794    0.63841560089647
H           0.20617352663172    2.20152738544802    0.91817288157851
H           1.65842945620363    1.73694775345221    1.13159802447711
O          -1.32914042460737   -3.01234817044144   -0.61295487970942
H          -1.15544664885200   -2.76877855499564   -1.52633217279856
H          -0.60378013509440   -2.64248244715725   -0.08295328144932
O           2.14486147553334    0.13527241381440    1.72375169273124
H           1.33132635964876   -0.35647371840899    1.51488020510478
H           2.86759955213834   -0.35255146824760    1.32464362631680
O           0.86348555469158    1.42071998933080   -1.73449742307510
H           1.05699876937231    1.84145411981639   -0.83437489955412
H          -0.25551660205190    0.49030205901290   -1.48084681177413
H           0.56798468689504    2.13578308258914   -2.30300259524281
