    19
        -40.90738846
S          -0.39617908805388   -0.38125357948281   -0.08555655039020
O          -0.66853303674517   -0.92673077374430    1.21253866524800
O          -0.49947181201585    1.04960799048145   -0.15509741608241
O           0.97708553635360   -0.85677555680178   -0.57198384285867
O          -1.33222037322493   -1.02261126988601   -1.15342700957757
H          -2.23871861540064   -0.77856528909146   -0.85974306116881
O           0.49208172993756   -0.05777665682753   -3.29489650527130
H          -0.39215474883682   -0.42933558072885   -3.30656850305612
H           0.88066285285504   -0.33351919616331   -2.46041184693105
O           1.62347648682188    1.75748691249778    1.35840426946618
H           2.20208589414335    2.32643279656598    0.84555564135256
H           0.80134634129579    1.66679272261751    0.84301507537673
O          -3.13163934098483    0.08705422125114    0.37904261484276
H          -2.70746314873792   -0.30177893206470    1.15359889328899
H          -2.79357777406984    0.98584399328066    0.30832349776505
O           2.12375309456883   -0.83607493103588    1.64738102212243
H           1.35721433370910   -1.14250836210138    2.14715921210942
H           1.58470185504375   -0.95411948434654    0.27346259720038
H           2.11754979336461    0.14783099558269    1.71920323653030
