    19
        -40.92022161
S          -0.81353299479487    0.37798471963145    0.22266206617771
O           0.09498354748052    1.23389548109425   -0.49608279152950
O          -2.19214223807177    0.34769298263802   -0.43654007875448
O          -0.33044792237808   -0.97508008512457    0.37190837520444
O          -1.10643529622619    0.99438995782659    1.59472839680509
H          -0.26164372583880    1.50003066757118    1.88370000171969
O           1.17850881484845    2.01514921913427    1.95919556583165
H           1.65127063261454    1.15316910268192    1.99735729329568
H           1.26650864646769    2.31606418685639    1.04718056001934
O           1.92309858496926   -0.54631584859524    1.76450459557865
H           1.16460787730717   -0.81919780694339    1.21344566843289
H           1.91367425892197   -1.11291590175967    2.53887985300178
O           0.40493852672346   -0.38101487289557   -2.62756566782026
H           1.25108610562908   -0.81150457456553   -2.48748546777491
H           0.35647393543080    0.33998847384715   -1.97415688464499
O          -1.81389344560637   -1.67992331710870   -1.90006356305330
H          -1.41470865655856   -2.20728937401738   -1.19897847001603
H          -2.21356407876687   -0.45501577213616   -1.07600052726785
H          -1.05878255217365   -1.29010723802903   -2.39668893525094
