    19
        -40.91234290
S          -0.06287760973397   -0.25268539596739   -0.57416747662605
O           0.30957873230150   -1.75044076666961   -0.55617679552534
O           0.41023610073384    0.36072775612689    0.64730070411309
O           0.37499442431440    0.34668588916270   -1.78912789264315
O          -1.60402038611486   -0.27480119219748   -0.52608886471121
H          -1.85518011193192   -0.33660290905841    0.46221860151595
O          -1.91902983693033   -0.00991945254695    1.97220757225887
H          -0.97428305671985    0.20953793804251    1.98464513883316
H          -2.39155788206686    0.83565298708173    1.87498900783775
O          -3.03741177625727    2.08153005502721    0.60088443621789
H          -2.63039644223114    1.69592161717397   -0.18203556097992
H          -3.96052742216952    2.23791162477683    0.39079321359769
O           3.06892900232774   -0.00970881333594    0.36002639365637
H           3.39015362489699   -0.37557225250468    1.18673488839192
H           2.15050890460610    0.27415675287901    0.52055226357981
O           2.48773690999561   -1.45755745863221   -1.81765159602405
H           2.94600439045128   -0.97415078459919   -1.09661235973755
H           1.18384578045176   -1.82878291991639   -1.07380296269441
H           2.11329664406025   -0.77190268483572   -2.38468871107797
