    19
        -40.92246920
S           0.63922961873037    0.57730305161120    0.63488793310511
O           1.59780855270139    0.72105376311709   -0.43599448521000
O          -0.74640154678311    0.95176801821430    0.11479098617521
O           0.61326330139324   -0.71036353955320    1.25995627164835
O           0.90047137942315    1.65793323366208    1.70652491073044
H           0.96496164439849    2.49838808785152    1.18719662544521
O           0.96703042659225    3.33151995347312   -0.28225453036635
H           1.41129874170146    2.57276632451774   -0.69459149235902
H           0.07248572030163    3.34841978262859   -0.63391325310835
O           0.86075687373259   -1.59764613224878   -1.60661216908838
H           1.28826970401365   -0.76409503184920   -1.34531996758277
H           1.13275562333676   -2.24886128833162   -0.95510739063809
O          -1.48566005314708   -2.38845322306654    1.16155392423112
H          -0.65876398102687   -1.89438067257559    1.31921637077193
H          -2.02606029741589   -2.27185024025413    1.94475678334892
O          -1.66516036359313   -0.99409946573015   -1.08643607290139
H          -1.81682180093419   -1.61819256142411   -0.33767164771676
H          -1.22211435008417    0.13321734735891   -0.44283149262198
H          -0.82734919325497   -1.30442740737992   -1.50815129387662
