    19
        -40.92246921
S           0.20897964897359    0.25068474406015    1.01989793439700
O          -1.17490660215931    0.03341993743007    1.37220654390218
O           0.71568723453088   -0.95383428498948    0.23108615250201
O           0.47291995805700    1.46628266260436    0.31115309193081
O           1.07676430196750    0.20733023027610    2.29660147001300
H           0.79072025264495   -0.62434927202011    2.75113253695228
O           1.36152248177913    1.56578264284477   -2.22436132074039
H           2.31651424361939    1.64930389329487   -2.22687094154678
H           1.07325190159097    1.70580473840079   -1.30231881802890
O          -0.19423758387325   -1.99410911272442    2.84392691770784
H           0.08064529834209   -2.62218811373797    2.17006891982141
H          -0.92205870290976   -1.47844750973756    2.45991285688300
O          -2.05741205494121    0.64986479511752   -1.10346575992516
H          -1.96154164786155    0.42077220691720   -0.16308205828504
H          -1.83870539607374    1.58270720281202   -1.17136735622293
O          -0.01216525081899   -0.69807504579336   -2.10882377708671
H          -0.90361933656742   -0.30905758261679   -1.93439507888007
H           0.54476681341418    0.06532010716897   -2.39265112152837
H           0.42287444058152   -0.91721223916843   -0.82865018185381
