    19
        -40.91814068
S           0.40686766588601   -0.64932080640995   -1.58871102045189
O           0.71154476362429   -1.51083979651106   -0.43853836280087
O          -0.77188568481833   -1.05538023257264   -2.29873277568948
O           0.43969831449540    0.75487952325285   -1.19449890213840
O           1.62925170774711   -0.82949435735875   -2.58873440776133
H           1.33717891976838   -1.53442428655243   -3.15863663394471
O          -1.77346045299520   -0.05573535748325    2.01504644494374
H          -2.01316575458544    0.07270779430711    1.05733564809888
H          -2.00488950157330    0.76114112207237    2.46166721840658
O          -2.12814324540150    0.45786009802884   -0.52749703197930
H          -1.30458071347820    0.91869452294307   -0.75665351426763
H          -2.14156362152390   -0.27372877765203   -1.16145612577910
O           1.62077971284430    1.60522259932073    0.94974009265466
H           1.19070536814320    1.40979910926796    0.07675386747747
H           2.56018275227532    1.68465844010560    0.77439167874579
O           0.69848314640996   -0.58917289191550    1.84158312222095
H          -0.30733370413216   -0.41664487165745    2.00788624426859
H           0.72628669772224   -1.07099273410812    0.88358006727391
H           1.12404363954858    0.32077090293704    1.64547438070827
