    19
        -40.90903566
S          -0.12083638602588   -1.55963224112414   -1.33615031606603
O           0.52401304570290   -2.62829440190542   -2.00607489370533
O           0.42305803717194   -0.23740030691785   -1.46371037942166
O          -1.61185762546189   -1.53085867020348   -1.62497119441969
O          -0.06938027147298   -1.89439801438999    0.22967442513816
H           0.02748311088837   -2.84168875198052    0.29606282209079
O           2.40898352264109    0.57136441744778    0.15725906605985
H           1.70398946050770    0.25877652818071   -0.43882961328919
H           3.17590338058639    0.73739690195761   -0.39296307888300
O           0.88849579100387    1.90730095163697    1.98178465589079
H           1.52706513340149    1.41598280658521    1.43224071268212
H           0.95590682691467    2.82820239326693    1.72562095990399
O          -1.28272711608660    0.36605058765893    1.55976701574983
H          -0.57224854256216    0.98879990883556    1.82257792253317
H          -0.84581065030699   -0.48281076164916    1.43707904530064
O          -2.05842763241009    0.80001262905642   -0.88643678958514
H          -1.93508835417938   -0.56793865064183   -1.34359250612438
H          -1.90235794353747    0.71871834785651    0.09948672745537
H          -1.23616375678965    1.15041634634114   -1.24882459130525
