    19
        -40.91568333
S          -0.27626589651042    0.05495727887072   -1.02460488842863
O          -1.47244497640648   -0.66581656641064   -0.67630470145551
O          -0.31674179173309    1.47115204055562   -0.85983793292313
O           0.88691735424433   -0.54019727757254   -0.18903711599715
O           0.15768590563441   -0.27551361951170   -2.46530994471013
H           0.01179678956167   -1.24904948509369   -2.57620174840059
O           1.84501213618946    2.13617720626369    0.69946998930126
H           2.35374938230281    1.32401188892915    0.64618469681165
H           1.20583178322113    2.09967670448214   -0.02935220908077
O          -0.49972420360813    1.87140498998812    2.04744130200707
H          -0.98036079989799    2.10424600367978    1.24643089222375
H           0.42696700322439    2.11448977510232    1.85465767057514
O          -0.53709116843108   -2.74855639582833   -2.06324965339804
H          -1.18113673323538   -2.28556943682942   -1.50014847081531
H           0.04108322847409   -3.24917897614998   -1.48213653246775
O          -0.41974833687199   -0.74114376423211    1.93412055733474
H           0.48505565333523   -0.69644649621321    0.75579404801599
H          -0.47144744317997    0.22584783554517    2.17337608940751
H          -1.25913788631236   -0.95049170558136    1.50870795199267
