    19
        -40.90757998
S           1.88849349747370   -1.11239075174673   -0.22197126795236
O           1.66141916061989   -0.08093620203793    0.74869330160200
O           3.21709786522222   -1.51046199927256   -0.51244046302085
O           0.99761504793818   -2.31263563604802    0.07068009961947
O           1.26597908625046   -0.54629496193440   -1.58393588941088
H           1.58515610395477   -1.12354550331932   -2.27385202756903
O          -2.48289763541659   -0.36832014215439    0.49164950523427
H          -2.80168563387119   -0.85934920795795   -0.26647099963830
H          -2.27372342956158    0.53851081921534    0.16631032095848
O          -1.83868412740390    2.05138013329108   -0.41131955366343
H          -0.85828779003535    2.12000829842595   -0.46985617361634
H          -2.12490227632955    2.79196316968997    0.12567703849070
O           0.83446243082506    2.14718150814019   -0.53289863402217
H           1.17037246987625    1.43407352312988    0.03904205346390
H           1.08592492412893    1.89852023655337   -1.42493382515482
O          -0.46792752104338   -1.38410555002835    1.83952603635368
H           0.32289531878079   -2.02473089083721    0.83093345740412
H           0.10728567030051   -0.62168991961009    1.98630220045316
H          -1.28859316171189   -1.03717693348311    1.39886483046465
