    19
        -40.92079108
S          -0.21706890263214    1.02106867001676    1.05791361683446
O           0.55858459446972    0.66568143999754    2.21808686225233
O           0.61592664132033    1.47958373866894   -0.05568339255069
O          -1.15079131264454   -0.00885892480377    0.62421875842479
O          -1.12330469269265    2.25507746360222    1.45899908424993
H          -0.50496337972383    2.86383441998100    1.85083051274337
O           2.20169242293306   -1.16835746242172    1.25854427804303
H           2.53081830155648   -1.68385602623072    1.99728559367639
H           1.67677992229766   -0.43619533004712    1.64881501105725
O          -2.11161441161039    0.28471808847206   -1.79875236830694
H          -2.72155896654891   -0.43595858663003   -1.96854771628052
H          -1.92458254216658    0.27257741798261   -0.83036528090452
O           0.36779467258752   -1.89672266781898   -0.48876688061321
H           1.17369635913702   -1.80977181917289    0.07272992711755
H          -0.32909133123563   -1.44787966207592    0.03143243955929
O           0.42266645115494    0.03863437091239   -2.05864245894576
H           0.61138749363176    0.73148630146553   -1.28666389266685
H           0.49829831594477   -0.88142412910278   -1.52514351827996
H          -0.57466965576103    0.15636271717279   -2.20629054541216
