    19
        -40.92071440
S          -0.21371467403460   -1.40206385979451   -0.43146624674469
O          -1.20077611599618   -0.70107676588761    0.35690023692639
O          -0.59914724528588   -1.61199932576174   -1.80801643792520
O           1.09933845192273   -0.73475050139515   -0.32921933547844
O          -0.01712430115391   -2.83205387540655    0.21105860709426
H           0.27001945641781   -3.37297628556379   -0.51915292063550
O          -0.49199369349199    1.52585081415740    1.55759020598973
H          -0.96945776019034    0.70050700855500    1.31005462660375
H           0.28603622866158    1.19992638644715    2.05762957705517
O           1.69758644559810    0.12447633284127    2.14079131019965
H           2.63997826883847    0.28837659515432    2.19924825566275
H           1.54543670815848   -0.33368549567553    1.29041202924310
O          -1.54628114658895    0.81785054372496   -2.03609294529337
H          -1.24103979732663   -0.11401118627757   -2.14338594519257
H          -2.29211436103214    0.76775138604623   -1.43098545230366
O           0.45693393823251    1.66636859650555   -0.72393113735666
H           0.88620294774520    0.73673808458782   -0.65194213336197
H          -0.35261236377735    1.49392928897853   -1.33695052822665
H           0.04272901333155    1.78084226870626    0.28745824383365
