    19
        -40.91899905
S          -0.85695209407238   -0.46198985055187   -0.72570025704984
O          -0.02228104191356    0.29636773674627   -1.63361355100584
O          -0.00597989107063   -1.09897778833951    0.32360792947301
O          -1.90025465758883    0.32843088900262   -0.11332029480525
O          -1.53478249168535   -1.62782375901667   -1.49491004748132
H          -0.78745234440829   -2.22235090157252   -1.71555146004969
O           1.74537659013438    1.82657845113752   -0.55133694679574
H           1.15288374539268    1.23290053729790   -1.09110801876746
H           1.42625050852367    2.71997785375681   -0.69786088726544
O           0.70092220373961   -3.01411230910099   -1.36281312767286
H           0.63684492488566   -3.88877902893553   -0.97214577332766
H           0.72896124846860   -2.37701581663377   -0.62480457720646
O          -1.20337745660123    1.93777150373382    1.77606644709568
H          -1.56837625714980    1.41210881891863    1.01197478884326
H          -1.79835535792994    1.78018728861849    2.51196981515954
O           1.02118273497599    0.74644660488364    1.60317760745538
H           1.46115943601736    1.24816713453748    0.80358894967540
H           0.17274894645109    1.28950172561105    1.82337263914361
H           0.63148124385706   -0.12738908008682    1.12940677454977
