    19
        -40.92079111
S           1.10174434491424   -0.94796739318036   -0.30712629066226
O           0.33719102385347   -0.14758139441970   -1.25368682770512
O           2.35654742728380   -0.36084504153499    0.08637974669578
O           0.27828390611892   -1.33561394937833    0.83973486767857
O           1.43319826064013   -2.29011195631539   -1.07771953383152
H           2.03960710150658   -2.73495025086624   -0.49369408521362
O          -0.63236798791826    1.88416893767683    0.17307230966066
H          -0.23287322431560    1.36051159582454   -0.55092907800085
H           0.10576804819225    1.99559241341349    0.81714765378461
O           1.57068383720145    1.65645112030613    1.60280896985452
H           1.92079733916681    0.87625596065990    1.12058241827383
H           2.29319919914100    2.28521178329814    1.65313367145909
O          -2.18169692758564   -0.82579538843752   -1.52470319352094
H          -1.20608714696147   -0.69448719785226   -1.58764579856620
H          -2.57800972195114   -0.24916839714742   -2.18100269272078
O          -1.88542885918243   -0.13590030472644    0.92210756972490
H          -1.00833557338511   -0.71151356125131    1.02180490880826
H          -1.47166968181502    0.82523923690013    0.71539853647895
H          -2.24055137491611   -0.44949621300094    0.02433685783249
