    19
        -40.91039639
S          -0.75570535380170    1.29497764824057   -1.22060663630758
O          -1.91396796774412    0.42466017975667   -1.23599166510953
O          -0.58539655061652    1.91377897595043    0.11196757420902
O           0.46535290962836    0.67873142875369   -1.67311757269194
O          -1.06476578823741    2.49253922408732   -2.19726738507534
H          -1.94075298567733    2.76719560160568   -1.94223824643913
O           2.24737077969396   -0.08994428829255    0.04774779089288
H           2.97684826293228    0.53195502583074    0.03048439193346
H           1.64741526660540    0.15899249308799   -0.70153761772383
O          -1.41047207940575   -1.37495256071867    0.54977692486034
H          -1.64553890507368   -0.76230401526291   -0.19582510452225
H          -2.23729416329651   -1.63860124620594    0.95828124078147
O           1.15832656508337   -2.54797367958557    1.04096487361220
H           0.30979909536329   -2.52569681972098    0.58821166400349
H           1.77699947611658   -2.05299190096677    0.49577353317116
O           0.27234132328662    0.22193127405252    1.65955253333882
H           1.16072918588593    0.00507120769796    1.21411334178394
H          -0.11549150321935    1.04773792695960    1.05645125390652
H          -0.34579756751997   -0.54510647526262    1.41325910537645
