    19
        -40.92113587
S          -0.33959043215154    0.34366019714850   -1.09241619379636
O           0.32754112476405    0.36982795207682   -2.34673872692962
O          -0.53474446118286   -0.97691678767986   -0.52471210181863
O           0.44948455432225    1.18616495570955   -0.04900846442418
O          -1.68001822652950    1.06958560397637   -1.15625124656569
H          -1.94759751833366    1.30803758848046   -0.19502227572714
O          -1.69357973414302   -1.00958988562139    1.85844385301669
H          -1.23023876239275   -1.10987275174480    1.00008589538033
H          -2.44950140296372   -1.59933335239847    1.82784655534712
O          -2.06265013162653    1.54948530529538    1.30150827259662
H          -2.00890106688045    0.63467077703076    1.67352815770961
H          -1.22701357711669    1.97445063671365    1.51618529377740
O           2.00409948451513   -1.84552044066243   -0.21461328697243
H           2.05665330063267   -2.18329018535503    0.68189172895925
H           1.05974830076919   -1.69463644732316   -0.40021889533135
O           2.72299983882304    0.61373814193907   -0.97849784864816
H           2.72078778195567   -0.32921946533913   -0.70353189103887
H           2.39833001399293    0.61502005624356   -1.88819470048337
H           1.43419093370773    1.08373810134656   -0.31028412539940
