    19
        -40.90958665
S           0.54210488852322    1.39647049388551   -1.17691737911987
O           0.71382076603493    1.98479657874138    0.12004329368122
O           1.13402102969307   -0.01007886620933   -1.19975880265529
O          -0.78074716018081    1.40514703824004   -1.71260704046680
O           1.48604412642993    2.15289514435190   -2.17613762721606
H           2.29879539011447    2.30210807786499   -1.69848802713184
O          -2.52263126985714   -0.62271885447724   -1.40888633697313
H          -3.28489248700658   -0.25799192419217   -0.95459450065326
H          -1.98827450158910    0.14066039037201   -1.69743870571161
O           1.60052891619931   -1.52824674946279    2.24730273491900
H           1.48822881885590   -2.28195845620015    2.82973085847603
H           1.34320583755031   -1.81667153620976    1.36533229393747
O          -0.42762212000659    0.35447408422303    1.94712271977072
H          -0.07605628924006    1.09887085467709    1.42672346462803
H           0.34080457372827   -0.03863186042861    2.39017938520129
O          -0.46214959293984   -1.42638222829024    0.04869414370285
H          -1.28234761165165   -1.34432068578512   -0.49342272482383
H           0.47340427143936   -0.68812169486648   -0.69161259494465
H          -0.59623759617138   -0.82029979618468    0.83473484526942
