    19
        -40.91790588
S          -0.69680960829938   -0.17779797284162    0.73197524607375
O          -0.30825094197608    1.02275099661259    0.03707798086098
O          -1.54767519477755   -1.05644932183745   -0.01769308171209
O           0.52541780411378   -0.92624493973025    1.23052921771612
O          -1.40493945133683    0.22234820836129    2.06396028954421
H          -2.21946622228872    0.68669081273340    1.77878176468261
O           0.53526430228459   -1.86868374885478   -1.58503165831243
H          -0.32334254907621   -1.68812899917307   -1.17189904132265
H           0.95670708468282   -2.53896686113479   -1.04295554327882
O           1.77741338668171    0.55895988722933   -1.67291417912548
H           0.97388051349791    0.99165241618947   -1.34693002520589
H           1.49187538531974   -0.34843581238914   -1.88712845326256
O          -3.10016527628087    1.23439592239191    0.33233983021027
H          -2.39093525290176    1.71220087537173   -0.11178548324940
H          -3.17517934695264    0.38681836460314   -0.12100968400542
O           2.58275717635595    0.40924879033054    0.77880838227490
H           1.42629158102519   -0.38366988399594    1.11070260551185
H           2.46026232073206    0.46534416345588   -0.22000571418726
H           2.43689428932757    1.29796712266703    1.11317755677095
