    19
        -40.92048057
S           0.87381889383635    0.20382443952917   -1.33143446481673
O           1.97250954076154    0.28652387894375   -0.39361239175421
O           0.31192943341905   -1.12430630698444   -1.47222093343473
O          -0.17599425216499    1.18099940180926   -1.00541379173871
O           1.45550650680568    0.62060431350073   -2.74296988510085
H           2.19634657312734    1.17689923931755   -2.52095284280540
O          -0.23775357991055    1.76307653064677    1.52851256602331
H          -0.08405216191246    1.65001635134483    0.55569334556483
H          -0.86226493104602    2.48548188567846    1.62267089995891
O           1.04890104694009   -1.74785932071659    0.95852170477668
H           0.75650473808483   -1.94270846272315    0.04490656840967
H           1.66197161613069   -1.00017533038704    0.79731575009370
O          -2.11218265957604   -0.48358631853013   -0.46258323950935
H          -1.54116723834558    0.26522447717294   -0.76288708984966
H          -1.79175746272343   -1.22329651489893   -0.99355878162028
O          -1.02199464086647   -0.63245642341740    1.80818649655681
H          -0.71788043579909    0.34728931544410    1.87230191325349
H          -1.59494700845295   -0.65090779831106    0.93272758411491
H          -0.13749396829969   -1.17464336740767    1.56479656186750
