    19
        -40.91904976
S          -1.04530619628325   -0.15427188619132   -0.49479241011880
O          -0.46769602677968    1.17964939503420    0.01619757632132
O          -0.24675556199265   -0.56905692186782   -1.62076427172758
O          -1.16145485299831   -1.08241310202454    0.58180367171512
O          -2.45929818798491    0.23198143725880   -0.99553410165673
H          -2.30104112208769    0.83169892272102   -1.76622652119643
O           2.28610537018132   -0.34321180064060    1.83817616449275
H           2.06075427655656   -1.01562012376746    1.15656942971602
H           2.97515914057517    0.20563559206953    1.46104021690357
O          -1.23511302669235    1.63779816262413   -2.81582745905322
H          -0.79323349088622    2.34586254911672   -2.33917236068367
H          -0.64290182824734    0.86973225804904   -2.77801512734032
O           1.44262566342581   -2.03943336908330   -0.06799188678702
H           0.74434720566115   -2.53250720001567    0.37184423102210
H           0.99692351458371   -1.56216281730816   -0.78586038114309
O          -0.07684931763342    0.67115934350616    2.42181923723727
H           0.85860294487777    0.34746787533920    2.36073972033013
H          -0.31032517176609    1.10194514670162    1.05170801195942
H          -0.62454333219963   -0.12425347156359    2.40428625991805
