    19
        -40.92122881
S           0.54639496371288    0.69005735967787   -0.69767839968348
O           0.92736140143993    0.31738889226337    0.64547249228617
O          -0.73706025883201   -0.10465156078369   -1.06488478329452
O           0.33849832870706    2.08922812520860   -0.89257170288106
O           1.55884670280126    0.16262837209154   -1.70538288999207
H           1.65882492348826   -0.84973434377650   -1.60015496674956
O           0.21303405943539   -2.23096804516588    0.83542199702606
H           0.48346002179083   -1.29919758644904    0.96476022776091
H          -0.72449626428717   -2.21199120279539    0.63044757946116
O           1.78417691646662   -2.33271595732311   -1.27276550892677
H           1.17104170754300   -2.45695795321542   -0.50216884654275
H           2.66827462036226   -2.52333833837584   -0.95006527957095
O          -0.64988444743285    2.42589627674660    1.58623212594836
H          -0.27821371878366    2.64536725853892    0.71423428701151
H           0.00049275649029    1.83591048436209    1.98194501951082
O          -2.46531895414752    0.82289497702829    0.56802059717436
H          -1.88329484142246    1.44350475829456    1.08355440199540
H          -3.12537634149389    1.37024022855518    0.13615145256762
H          -1.48676156587987    0.20643828510241   -0.46056780309750
