    19
        -40.92174065
S          -0.05899255819365    0.54774826331316    0.70681196765026
O          -0.23617932905260    1.13074063839948   -0.68294865378404
O          -0.98091293296168   -0.52837648347417    0.92382526738508
O           1.32971205794853    0.20484746485372    0.93046767777071
O          -0.43303277957883    1.72063520141811    1.63879932111613
H           0.36274144055028    2.31282398066277    1.66069985089928
O           1.09362726003644   -2.08260525496890   -0.49610882849641
H           1.39544843418394   -1.33866058301799    0.05093802513684
H           0.43608080820018   -2.54512220516296    0.03003559033851
O          -2.52894826686931   -1.52670329189758   -1.03845121972858
H          -3.35996305212227   -1.04924042691740   -1.05753228129185
H          -2.07215281389315   -1.25446998967954   -0.21996156527845
O           1.97462323058837    2.68936738257997    1.57799879084599
H           2.10957167392103    1.78199452925419    1.24728367643842
H           2.44327702570547    2.75472451784035    2.41394097618633
O          -0.32239430731856   -0.73852895262021   -2.29581198029041
H          -1.21060806788211   -1.10478036849161   -2.07795605253431
H          -0.25940281185565    0.36964876232065   -1.46003169858408
H           0.31750497838600   -1.34404319434201   -1.85199886385495
