    19
        -40.91824960
S          -0.24975695712692    0.89799506999963   -0.09382859986093
O           0.84306989276574    0.72703234622541   -1.02526183180557
O          -1.33015467051823   -0.13173450516342   -0.41593319087949
O           0.09542658081232    0.84789304909375    1.28978756036290
O          -0.92612367083303    2.25880533898165   -0.39227279780372
H          -0.92642569038755    2.35054905093279   -1.37894209893542
O           0.73272373033192   -1.64643301160273    2.22527971812331
H           1.18168414537090   -1.90693128519343    1.39994540048974
H           0.74788078034317   -0.67789934822934    2.21263098880019
O           1.85549842332420   -1.67572877487687   -0.25879593800220
H           2.80482559910259   -1.66279879570375   -0.39584072207244
H           1.51317332067133   -0.83757595447443   -0.61326861362323
O          -0.38256557017530    2.11008588084824   -2.92868917147492
H           0.16895737893858    2.80472079091627   -3.29736771371932
H           0.21673304019092    1.44232997845020   -2.54860829751145
O          -1.79211569636526   -1.51390147162021    1.62386610779529
H          -1.57012823806198   -0.73545628243894    0.40034516104622
H          -0.85366435364305   -1.73582680984122    1.90193678948628
H          -2.12903804475189   -0.91512525623348    2.29501723959921
