    19
        -40.92136504
S          -0.01831263303989   -0.61298765309260    0.86717671248239
O           0.90263885353362   -0.71991527489528   -0.38243883964741
O          -0.84834023323865    0.55378877757848    0.68982889717159
O          -0.72908056796064   -1.83392273871897    1.07396760502891
O           0.98937298665008   -0.40335922296566    1.99218825251082
H           1.67944107640976    0.28328142085496    1.67161150075499
O           0.50007033523951    2.78427094551813    0.26404478429849
H          -0.10349221409778    2.01949828565057    0.38427383500288
H           0.18652892498822    3.47177382371442    0.85463857118984
O          -2.27696948768811   -2.40097576550449   -1.03585271916566
H          -2.12114128834438   -3.31695400281942   -1.27436252260200
H          -1.85002235590996   -2.26681283908841   -0.16708906965506
O           2.56104323708222    1.28080721459870    0.93588446445571
H           1.91421436443844    1.97896646138008    0.66426058015719
H           2.80983599452194    0.81740784255636    0.13092260957280
O          -0.96309675372486   -0.33347739261073   -2.04785088767636
H          -1.53343397183699   -1.11632918577309   -1.85837384431381
H          -1.37621199607966    0.40402818282237   -1.58684892068340
H           0.27695571908748   -0.58908885926152   -1.17598100888968
