    19
        -40.90976880
S           0.20131346407358   -1.94464058710161    0.09850749012692
O           0.54933814980598   -1.44363776311302    1.41571183470000
O          -1.18986606650645   -1.70310116428064   -0.23727471495164
O           1.10977773902968   -1.44831706126397   -0.93648868466791
O           0.41274271259994   -3.50743811649909    0.12468493921582
H          -0.16768710888082   -3.79346622183722    0.82362893608517
O          -0.87232204376531    2.83399349642608    0.46294962746108
H          -0.38973027712504    2.37295939067602    1.15569468594740
H          -1.50267114334287    2.20582103122686    0.09765638572078
O           0.91127891519478    0.99839204347023   -1.12131198655912
H           1.06908301210851    1.24023109477366   -0.13983125088044
H           1.08763727828713   -0.05624030856618   -1.13766501868976
O           1.17105606509120    1.05573732646586    1.41805484321273
H           2.03170339278584    1.14437767586331    1.83163008915233
H           0.90858884418201    0.09888054119446    1.51661157308493
O          -1.61305883475779    0.63481136495206   -1.23081602633612
H          -0.10139744604031    1.06228671200667   -1.25384345151874
H          -2.06698253600128    0.52084830724800   -2.06780262592311
H          -1.54880410672593   -0.27149778163715   -0.82009664518024
