    19
        -40.91587787
S           0.39951168786076   -0.29271088169127    1.19835719879604
O          -0.16936099668852    0.97153514177852    1.52114010336877
O           1.54701301945597   -0.27025193653446    0.32318462199505
O           0.76863514485247   -1.05268350803723    2.49278985806138
O          -0.65355089626485   -1.23301406333763    0.56578618396353
H          -1.38641698545780   -0.72289697230668    0.05954699032928
O          -2.38484506551047   -0.02386759281975   -0.82258143894914
H          -1.91137420632125    0.71647795459664   -1.29418481642737
H          -2.68374410989221   -0.62804071249883   -1.50643252476851
O           1.00142251278500    2.28039959675284   -0.53973620376589
H           1.55758543805473    1.49013965273666   -0.54624833624590
H           0.53473431522207    2.22015901681035    0.30754343954169
O          -1.09365350243033    1.85846252251304   -2.10508869491527
H          -0.25401677755786    2.03104832625457   -1.60993380189418
H          -1.55232416894546    2.70026380433903   -2.13799083765481
O           1.85674621694374   -2.85163570135187    0.95637253708236
H           1.13692328610481   -3.28643737249552    0.49182385056291
H           2.05345117990743   -2.03703909636702    0.46270765019042
H           1.23326392788800   -1.86990816833752    2.18294423074377
