    19
        -40.91587791
S          -0.51028933264144    0.03435948192180    1.19143114743818
O          -1.57245933175943    0.21580038528192    0.23126808005713
O           0.37729226365210    1.13406468923544    1.36192985932623
O          -1.12488526823434   -0.36523549406779    2.55235338918469
O           0.26016520729096   -1.24884137666589    0.80033783712480
H           1.12473755250521   -1.04927707125324    0.28419886045709
O          -0.30243549990249    2.33949213848084   -0.96480040417233
H          -1.05827648278262    1.74112438249774   -0.89861153306480
H           0.09560726195650    2.29791115792488   -0.08203631089120
O           2.31072982936115   -0.80656839249261   -0.60882818010863
H           2.08225902095457   -0.05680851222396   -1.22558836288016
H           2.45331946981232   -1.57600189886062   -1.16525623900127
O           1.64953923458179    1.10913455925391   -2.26652197351694
H           2.32655408458169    1.77769037257989   -2.38814234626835
H           0.87334596424434    1.58312198257125   -1.87565616829116
O          -2.61395764151242   -2.03968637641638    1.22582256267450
H          -2.02623608549843   -2.72399961031920    0.89523147793231
H          -1.78771591149212   -1.06742237567210    2.33465958489986
H          -2.55729435513180   -1.29885804176578    0.59820871911521
