    19
        -40.92174072
S           0.30288513460261    0.02935693692348   -0.84397156071478
O           0.37778764870935    1.28636425805617    0.00314489261304
O           1.28457489854249   -0.93468236145001   -0.39372265078386
O          -1.04112370742228   -0.46678746166176   -0.89256291511358
O           0.70461541412133    0.52099654565580   -2.25148115305366
H           1.69382296745235    0.59616304486887   -2.23872798635255
O          -3.01818982632972    0.55651691153232    0.62046030565289
H          -3.44722252866873    1.26647951273717    0.14006997934444
H          -2.43029960573015    0.10717347558824   -0.01603835681919
O          -0.27367372356041   -1.69414722841977    1.68509648774166
H          -1.03786518551636   -2.03313983259611    1.21160700304451
H           0.42595178523133   -1.58958502050293    1.01932542198787
O           3.23578998185759    0.22526882890128   -1.75673168903076
H           2.82462584629948   -0.30478100830689   -1.04904737388531
H           3.72470853394118   -0.38486846128060   -2.31475695332223
O          -0.83872484045742    0.86587876072208    2.11223179783113
H          -1.76342917682508    0.86379832302316    1.77243601999686
H          -0.60846832303873   -0.08617376552205    2.22701886831757
H          -0.11576529319889    1.17616853173195    0.96564987254166
