    19
        -40.91587782
S          -0.02802985344762    1.29012497023461   -0.12474497993771
O           1.07430615776109    0.93748460491835    0.73763816023952
O          -1.33071995942223    1.15162754393021    0.43204030402534
O           0.17695907563983    2.73336070843015   -0.63886455575567
O           0.11286379170692    0.46508746186335   -1.42582261576621
H          -0.49636845199910   -0.36095025930445   -1.43866942507955
O          -0.54536227218310   -0.48411641997069    2.44177908964071
H           0.32432423054465   -0.14232727165813    2.19532971188174
H          -1.15880918291587    0.11408743000101    1.98887671235258
O          -1.05425546245507   -2.64241192110971    0.99210120995526
H          -1.87471955942552   -2.99123517743852    1.34601789746212
H          -0.79948668591185   -1.89797772740688    1.59275004203394
O          -1.25192658018219   -1.66183933314858   -1.42767203183859
H          -1.21057789840908   -2.03104875002573   -0.50215050040300
H          -0.80088203733147   -2.29703082790240   -1.98901170739387
O           2.64758463131395    2.06114161956805   -1.11268030492142
H           2.46541285532814    1.55420843724407   -0.30284915117086
H           2.62561043719067    1.43337884051397   -1.83965429390270
H           1.12407676444237    2.76843607126051   -0.92441356150091
