    19
        -40.91176139
S           0.41926531089083    0.29282214756952    0.03104555957056
O          -0.79274160131300    0.00803765436636    0.92952945325204
O           1.40111840737376   -0.73943405528704    0.23515139374183
O           0.00631069287825    0.48925900432016   -1.32566098546013
O           0.94854254153183    1.63411861178046    0.58162479500994
H           1.54810627651257    1.42059412521867    1.34978062990336
O          -1.54871404411686   -1.56350505752159   -2.16447404712255
H          -2.41395255051169   -1.19912001006278   -2.36473227109632
H          -0.94782048814854   -0.80309636031614   -2.07333853774619
O          -1.57786559072721    2.71466063343481   -0.75283249144969
H          -1.06553700420034    1.99020615210125   -1.12935469949541
H          -1.03774355893573    3.08082759979928   -0.05054687961703
O           2.57407192442859    0.52325943508131    2.24939977288320
H           2.34827009113432   -0.23514350479956    1.67981869944432
H           3.50982105058431    0.70157763165946    2.12471754621165
O          -0.99909973130124   -2.42235640958133    0.28310817138909
H          -1.29934860352440   -2.29785439800300   -0.64950127857899
H          -0.05655116962405   -2.61259465098401    0.23934629880944
H          -1.01613196294569   -0.98225854877023    0.80691886036366
