    19
        -40.91587790
S          -0.12077479138469   -1.04576570185054   -0.75617674554416
O          -1.48679609820519   -0.64849702061451   -0.80567060543190
O           0.37431619760451   -1.46563635669540    0.53288198237481
O           0.14122085706584   -2.16832488820887   -1.78605564849463
O           0.80668982234912    0.08088612713524   -1.26956825388619
H           0.41523485945487    1.01700224002730   -1.11389665776935
O          -1.71431126950216   -0.27578533446359    1.86595403505504
H          -0.90190489776307   -0.79889464570262    1.87339222619689
H          -2.05104197703920   -0.39554425068671    0.96500315754298
O          -1.07948685286783    2.28666415590541    1.64246728438027
H          -1.90977631839068    2.75716093101589    1.73924452808431
H          -1.28733699734109    1.33702367468803    1.82910505502414
O          -0.04899085292673    2.40375892103087   -0.76153326432035
H           0.71242619619147    2.98241331007066   -0.67555977121244
H          -0.47212074973126    2.36621504818252    0.14085962491886
O           2.53769645282470   -2.33443385364110   -0.78080906250087
H           1.07817410712900   -2.44488808431722   -1.62644542077007
H           2.99306646128922   -1.52464960923738   -1.02555054395191
H           2.01371585122754   -2.12870467260858    0.01235808032442
