    19
        -40.91739541
S          -0.48277415389348    0.66040085701101   -0.97855881332958
O          -0.69669427886782    1.15084502997064    0.35952261316113
O           0.83922814009891    1.16117860412390   -1.53713201231213
O          -0.59000129894712   -0.77070529553274   -1.08274415596454
O          -1.48303231970990    1.33440032253544   -1.95336592065183
H          -2.36051323755830    1.05691816739356   -1.61171409699823
O          -3.17365434192600    0.14585804101550   -0.34288118204091
H          -2.83634290189291   -0.74926026129551   -0.45110606020458
H          -2.68989269318589    0.52786740281228    0.39989911268393
O           0.25976188249894   -2.29710440454069    0.97094969136717
H           0.88859677275463   -2.93367809599340    0.62580266188765
H          -0.10125483028131   -1.82517427628924    0.19739613617610
O           1.18892563392464    0.03278221404448    1.96836946945252
H           0.89823185806553   -0.89441752501460    1.84996684752334
H           0.44634329099073    0.56574800704813    1.63846044789005
O           2.72835244369850    0.47309518795823   -0.04266186054174
H           3.27695827601412    1.23896248331009    0.14346029331518
H           2.22608988753747    0.26446056377155    0.81111277256881
H           1.66167187072443    0.85782296765409   -0.96477595399312
