    19
        -40.92246924
S           0.46349966537490   -0.19641775081131   -0.94436263605005
O           1.65643819754921    0.49960821351471   -0.52143997624106
O           0.28440309284279   -1.49815682948442   -0.37612613201003
O          -0.75109557696705    0.68524023522061   -0.66518491379271
O           0.45263868855038   -0.30786099022386   -2.48454215961815
H           0.64227711196219    0.61408738770894   -2.79145923974381
O          -1.72481568159658   -2.15201125362429    1.28711177856645
H          -0.96229977834282   -2.09164754174404    0.68083689844664
H          -2.44166844446018   -2.54333633105435    0.78519913516667
O           1.00477025898823    2.23299153464288   -2.47288024074506
H           0.22363510770219    2.66253654727490   -2.11303440300438
H           1.53804017368263    1.94850118499980   -1.71275542865602
O           1.22995768315160   -0.04897124205508    2.08762999581444
H           1.57992097023102    0.23420928724451    1.22554194337352
H           1.33383545513183   -1.00346678001250    2.11344401216730
O          -1.34638936220665    0.43738824557450    1.71328293737376
H          -0.43044724889748    0.38395930696843    2.07985941525561
H          -1.07538305313125    0.63521646597196    0.38362463012916
H          -1.67731722946418   -0.49186970015058    1.72525438352885
