    19
        -40.91289215
S          -2.24897117815342    0.08743232903792    0.28152152668029
O          -1.86638273294166    1.52195306044773    0.59931865956930
O          -3.65549309771520   -0.08097870740376    0.31866996579027
O          -1.52756595449953   -0.37600557409153   -0.86784264802680
O          -1.64709567311599   -0.72890114187013    1.52475290779287
H          -2.35741836225181   -0.74612808536558    2.16113610632204
O           1.21666331477287   -0.44550698893687    1.60380167812016
H           1.65898895763887   -0.96830286202010    0.90261801848883
H           0.33775235773631   -0.82417801045936    1.70970284652358
O           0.74333271086016    0.24004820713018   -2.03009609516673
H          -0.11261006863508   -0.07043027822943   -1.65738541886094
H           0.60106730908109    0.34700471811384   -2.97195360123692
O           2.32897703735494   -1.51784228233653   -0.61860642878773
H           1.81003496533794   -0.96518572036489   -1.23015858864650
H           3.25054894918966   -1.29048263959204   -0.75274576879047
O           0.58791140732752    1.72680604510712    0.28814002851608
H           0.77331861828686    1.41783722928873   -0.61553782532452
H          -0.81897750969090    1.66852522555048    0.46692219052524
H           0.92591894940040    1.00433547603896    0.88774245654137
