    19
        -40.90822117
S          -0.15992979965660    0.44303748112886    0.32795676874873
O          -0.03975971379928   -0.26670728031748   -0.92574026410519
O           1.06379497568106    0.08432391826526    1.20137836447239
O          -0.31642151824455    1.85199699468002    0.24249054511599
O          -1.32308651800411   -0.18270940891390    1.13415418400854
H          -1.21471422135212   -1.16292967260272    1.03682263846607
O          -0.64658825470136   -2.55057251109103    0.27659482403816
H           0.13799858918312   -2.97127611771862    0.63658254832738
H          -0.35421362819404   -1.97473173136345   -0.45481538385569
O          -3.55743813322795   -1.97933300068616   -0.03001207988746
H          -3.35196999565616   -1.12877139993734    0.36361316697976
H          -2.74130026920695   -2.48709360091810   -0.04066539122421
O           1.66960590728679    1.60580452447468   -1.91160439119407
H           1.07144730409471    2.32000969792897   -2.14539662094933
H           1.10572802508705    0.82918996695453   -1.76553836807949
O           2.52671305080303    2.04701754075865    0.57570922477602
H           1.76592201162558    0.81722069697098    1.06198344643591
H           2.42503125635050    1.93504394012390   -0.39930980521258
H           1.93918093194434    2.77047997227611    0.81579660311881
