    19
        -40.92246893
S           0.69166575204177    0.81157985484143    0.08821462559565
O           0.86734387405957   -0.62528911282304    0.57272067973560
O           0.85880185283576    0.84792123866127   -1.34605409051495
O          -0.53874727997824    1.36104685692355    0.57167485593176
O           1.87414779639986    1.54146247188301    0.76195853947761
H           2.67402915386864    1.14753367374568    0.33176687112282
O          -1.60853842887506   -0.14512242796623   -1.80805130746350
H          -0.71518812826471    0.23474074524457   -1.86728513946635
H          -2.17617042259309    0.56365966369157   -1.49497914798868
O           3.38515169744719    0.10571290678468   -0.79294159085576
H           3.27203833854455   -0.80124263735057   -0.49474583134753
H           2.65245464579571    0.28865137112751   -1.40339053308519
O          -2.43991466835476   -0.07433434174029    1.81829446634494
H          -1.84815088433323    0.58974058845065    1.41635371987798
H          -2.31433875687595   -0.01219175965155    2.76656879749103
O          -1.25698309679113   -1.82055181204408    0.21281985849250
H          -1.50291289338990   -1.40708428086919   -0.65013893818844
H          -0.04126122764011   -1.22973836303518    0.43791545836819
H          -1.83342733386331   -1.37649466588243    0.87929870647058
