    19
        -40.91790597
S          -0.01519254569042   -0.59891227856705    0.83412733326769
O           0.03637429123784    0.83158426012409    0.67210475416768
O          -1.31134473885356   -1.17940964951058    0.63115457824711
O           1.01086640279204   -1.27474194951050   -0.05633285066201
O           0.49890555518364   -0.95970638006090    2.26284081145675
H          -0.16011230595074   -0.56020324774028    2.86831480872366
O          -1.64553458707194    0.41951070026202    2.89208297875036
H          -1.35637115767169    1.15618180079397    2.34229656324163
H          -2.19400410350350   -0.13608805718781    2.32637689414144
O           0.19542875322406    1.53522961785104   -1.96754327021662
H          -0.34741137047503    0.78499972326698   -2.27315231814101
H          -0.03974262095558    1.63525794578398   -1.03276729153741
O          -1.12806202142428   -0.84782801725942   -2.07244271489905
H          -1.39721999638467   -1.01709991135410   -1.15628087140812
H          -0.60747661814471   -1.60736043372637   -2.34243914722943
O           2.40932693682838    0.44307618459042   -1.20207503140597
H           1.66748316279125   -0.59377971370127   -0.53157564684447
H           1.64770428060379    0.91815533639258   -1.66056833522432
H           2.73638267348040    1.05113404956891   -0.53412124444034
