    19
        -40.91628491
S           0.26774666468545    1.25701437176582   -0.00042723285668
O          -1.07835045654956    0.79940719705441   -0.57148162788852
O           0.50644743958770    0.55208090834423    1.24012266931259
O           1.29316192086151    1.14035386309439   -0.98552893734960
O           0.05480639688624    2.75820042386606    0.30375945628356
H          -0.40724654922168    2.80838601740361    1.17855439381749
O          -0.11357878650513   -2.88990294093753   -1.18989823833443
H           0.51199606347773   -2.27340678622129   -1.63339154989444
H          -0.69539341875470   -3.21603834885935   -1.87883887627927
O          -0.81201736145087    2.30213069208130    2.71414202691010
H          -0.30895730862654    2.69367139540095    3.43221993603477
H          -0.36625109085101    1.46768704289202    2.47416638801260
O           1.50646058468819   -1.13133732711968   -2.39067030092988
H           2.45009499338203   -1.30243528164724   -2.40881080623048
H           1.40246857547182   -0.25849621670440   -1.96515857676778
O          -1.33020076705630   -1.39201404034595    0.60293226381872
H          -0.92106664139356   -2.04330851079571   -0.02600762557125
H          -0.63855090556455   -1.16091577911846    1.23577003630057
H          -1.32156935307857   -0.11107669014955   -0.13145339839324
