    19
        -40.91892636
S           0.56730798350833    0.23232590074200   -1.29730688980868
O           0.59797768623071    1.66727780012794   -1.48172529033122
O           1.42535751664752   -0.18135636748618   -0.17092291774658
O          -0.75400997383197   -0.33139866137355   -1.17438153008933
O           1.22206905422148   -0.41574120471976   -2.58239589527923
H           1.96809935323031    0.14339810739575   -2.77861940156397
O          -1.71239478397502   -1.18222355912326    1.25909645980029
H          -1.92632636412067   -0.78376513787590    0.40058212207615
H          -1.18286884194605   -1.97417084533917    1.01287481160143
O          -0.57873001227574    2.55292383154576    0.65813952532597
H          -0.19450355427463    3.40583755887291    0.87257754526159
H          -0.21069247066697    2.29527686107270   -0.22577193196380
O           0.07063675538688   -2.65692216696505   -0.07719554188280
H           0.96888380994062   -2.38695528740194    0.13513317199392
H          -0.22984870050548   -2.01319536374782   -0.74048400134827
O           0.11648551914970    0.41874513225459    1.84897310455098
H           0.77220614354281    0.13382187477719    1.07712110084810
H          -0.21834031596574    1.33178831940971    1.52943838289072
H          -0.70130881418701   -0.25566679219675    1.73486719572075
