    19
        -40.91062387
S           0.06036258622927   -1.10264822258528   -0.99972599591883
O           1.32042929180342   -1.33180760254382   -1.66653065783871
O           0.16047707237072   -1.39407817219958    0.44621940532574
O          -0.46968282399765    0.22557230711491   -1.22068138112030
O          -0.99179684632459   -2.12029077286765   -1.56682113805069
H          -0.62949968562635   -2.98718159215359   -1.40378186848155
O          -1.08932338706444    1.76836205641930    0.75997903054233
H          -1.29132020543391    2.65903884077941    0.46867216281772
H          -1.03219337272889    1.20129042231146   -0.05264132005270
O           2.29331311683186    0.93367661853176   -0.83153325268188
H           2.11189982659212    0.03562661997868   -1.20565821628957
H           1.82577506140447    1.54133992013216   -1.41114412922692
O          -2.35807743492875   -0.82833007747438    1.53334101052350
H          -2.25432013175008    0.12704031197680    1.52597980427601
H          -1.53053111281916   -1.19192217561088    1.19439322410554
O           1.12333978449688    0.65901857828709    1.39768960695636
H           0.29211514014285    1.23965914513001    1.32725318219841
H           0.74559719537584   -0.30898182814017    1.13144214215480
H           1.71343590545492    0.87461563285733    0.57354840074650
