    19
        -40.92115648
S          -0.26662681644695   -0.95905854615967   -0.36696749004727
O           0.12459271528134   -0.71560273344789    1.04380471590555
O          -1.62796280584271   -0.48973546254837   -0.58306862527752
O           0.68251465111448   -0.35534014333435   -1.27503304077841
O          -0.22704905318900   -2.49806518928720   -0.57269389185510
H          -0.91079710725521   -2.82620560625397    0.05300110507555
O           2.73680222841377    1.05555314309118   -0.49629711413974
H           2.10657382755055    0.39185250018546   -0.86675940085917
H           3.04411496645294    1.58696256833666   -1.23315975490595
O          -2.12369857971873   -2.42398030035533    1.23917503709448
H          -1.56392836722550   -2.02253632083934    1.91201486315153
H          -2.40475553730803   -1.69331391632391    0.66625484684967
O          -0.91842665736203    2.03089862817835   -0.68907790110676
H          -1.36053112484601    1.14930069775501   -0.65237438086625
H          -0.52358650390930    2.07030884228785   -1.56396785901146
O           0.84336427287813    1.62358514437364    1.11698601208268
H           0.54517199216448    0.57137255718617    1.22333912047068
H           1.70980269168914    1.54415593712786    0.58703603862462
H           0.13442520755083    1.95984820006312    0.45778770954601
