    19
        -40.92343665
S           1.68543502177810   -0.03370057139555    0.05740267976642
O           1.55522311872337    1.40880889147856    0.26804746784128
O           1.40151831595485   -0.78293384371947    1.26283829789122
O           0.89762549900385   -0.48484988106156   -1.07876005392717
O           3.19311496727416   -0.29048478736901   -0.32070121923574
H           3.65891750557972    0.03672455406292    0.44251656568068
O          -1.11929909621155   -0.27623684503960    1.74304100698887
H          -0.15975733207444   -0.50179080219283    1.79362778587622
H          -1.46536612896900   -0.88648424815918    1.05855272386734
O          -1.30425074109856    0.84869906697005   -1.78214196478170
H          -0.41132937543146    0.44520184309016   -1.78450199655964
H          -1.91399756863623    0.10657673022618   -1.70535391620441
O          -1.34228350605042   -1.77530842547106   -0.47459757829916
H          -1.24891056213483   -2.72549666234067   -0.39419448239703
H          -0.45607345730303   -1.43212092404151   -0.72494674992382
O          -0.87312388803430    1.87344799407563    0.50753268685286
H          -1.17696783863246    1.60648269972105   -0.43727012035023
H          -1.09011241585235    1.02849465143327    1.12631495788031
H           0.16963746210899    1.83497055972558    0.44259388903453
