    19
        -40.92246924
S           0.38721482522928    0.94784826522847   -0.30944342557944
O          -1.01430213969343    0.38931639174476   -0.54058712030703
O           0.50376142617963    1.37004634371525    1.06697491399781
O           1.38160086865173    0.01507497890576   -0.74646187536688
O           0.41312930075257    2.18714226782729   -1.23065104118597
H          -0.25221803330979    2.79881380621941   -0.82673047986596
O          -1.37020807743606    3.17540131227761    0.38347058428429
H          -2.15106200939927    2.62646499344275    0.26911314953682
H          -0.80426141070212    2.71896262002386    1.02724835723530
O           0.81407199463352   -1.15590532033141    1.96789226640598
H           1.66179872261624   -1.40295299443208    1.59000600313273
H           0.74475275988387   -0.19176676109639    1.86027306975865
O           0.84975843420930   -2.51264506792225   -1.49203592679864
H           0.74765679597204   -2.55058554190426   -2.44446351362308
H           1.20773858890484   -1.62805747944781   -1.28651281889585
O          -1.05321840679099   -1.93974464349222    0.26176526778281
H          -0.47801084460549   -1.82067941593178    1.05635107993793
H          -1.11524013700314   -0.65154876101625   -0.19918029131022
H          -0.47296266808150   -2.37518498378703   -0.40702819916150
