    19
        -40.91535442
S          -1.88690074655705    0.47464157891870    0.46962777350582
O          -1.65253173155060   -0.65659640816356    1.45611665540282
O          -1.12886916849842    1.63421137137590    0.83494613983953
O          -1.73282313736616    0.01354872985043   -0.87820872936654
O          -3.40682884450055    0.79488351737221    0.69382479158617
H          -3.44583049705049    1.28769598906089    1.51022475878517
O           0.41058622011646   -1.32055585863125   -1.60299577684458
H           0.17499325389234   -1.95898811611303   -2.27869088654215
H          -0.40326584105967   -0.79458474641984   -1.42874341355898
O           1.53512493439035    1.09434568738139    1.05774225567456
H           0.65857878096946    1.51297339973804    1.04941849459846
H           1.87438111463884    1.16883029800894    0.14446496098605
O           2.28238733273382    0.72945360733691   -1.54219399562803
H           1.63963868327362    0.01810291302792   -1.70151509713676
H           3.15446355473035    0.34927887591534   -1.66086180424821
O           0.68829133292862   -1.33893085637585    1.12085386273621
H          -0.62529718115603   -1.01884256755207    1.37180180582770
H           0.72333890414851   -1.54866277479706    0.16916642374621
H           1.14056302763838   -0.44080462100871    1.21502176547480
