    19
        -40.91010048
S          -0.26634483699920    1.69530137719625    1.12407592118765
O           0.10841685395382    2.46316889675864    2.25403179392387
O          -0.68362290575636    0.33646120678783    1.31650855537079
O          -1.27637534339250    2.42559557459944    0.25807336850999
O           1.02374658682264    1.60968261127381    0.17408532277523
H           1.54232729359733    2.38788571432103    0.36537983762106
O           0.20856550850722   -0.10743348184670   -1.98599299898186
H           0.73304780074381    0.42246123383219   -1.37626982341174
H           0.36378788735576   -1.04460309972626   -1.73176757470213
O           0.76034605169615   -2.54121579815201   -0.99070000889581
H           0.90590519299049   -2.28390254084140   -0.05501512345614
H           1.57378428170350   -2.94983461944642   -1.29033434316482
O           1.10123937101107   -1.64834898595809    1.53089520071141
H           0.48174531611439   -0.89502320317041    1.48429542804416
H           0.80855827538494   -2.18556508130535    2.26963167736805
O          -2.14138798780714    0.50897958877231   -1.06312376976138
H          -1.71840521258309    1.68711972773716   -0.35706326074744
H          -1.31806241415333    0.25530750977037   -1.57643819205485
H          -2.20727172918643   -0.13603665006806   -0.35027200047863
