    19
        -40.92135396
S          -0.67427735967832   -1.32103448109696   -0.48553242792443
O          -1.20618161115798   -1.30414407926141    0.87768029689336
O          -1.40883159000347   -0.43843529754320   -1.36511618664664
O           0.76030853631215   -1.08235976019764   -0.50102030198855
O          -0.87575062333726   -2.79132132918746   -1.02197198054630
H          -1.82295205455305   -2.86532555834768   -1.08553742115087
O          -0.87237103974799    1.93499972601677   -0.39496611889292
H          -1.28126751016880    1.15154763846677   -0.83330314640247
H           0.02409401482002    1.97631058522678   -0.80628780261040
O           1.77726635249052   -0.03084204218180    1.70324312274802
H           2.00749077390785   -0.72811301147557    2.32010029259599
H           1.55078144572300   -0.47187374664975    0.85304965022751
O           1.36906102580693    1.28141949719840   -1.63229758540129
H           1.26943055114904    0.37177838426816   -1.28956844976036
H           1.26366513835845    1.22241935994774   -2.58342286214325
O          -0.59157020513740    0.90936799263593    1.83928042214612
H           0.40315547422091    0.71068797715286    1.92350512588420
H          -0.72028428430659    1.49085424517952    0.92180879366349
H          -0.97176704470113   -0.01593608020202    1.56035658932109
