    19
        -40.92267751
S          -0.32084258470842    0.74345451178132   -0.69187710923557
O          -1.05815894138947    0.29946014046040    0.51739716006606
O           0.81392546473728    1.56657747672872   -0.30071139737005
O           0.05774540123951   -0.39245471922791   -1.50120138176964
O          -1.31618733098150    1.61145858358737   -1.51098450036488
H          -1.49266194565788    2.36987662502158   -0.91103193000867
O           2.29734140229628   -0.44334967235761    0.49340786260720
H           2.53386259888448   -0.86698722606667   -0.33636140039423
H           1.88186152199956    0.41498787894271    0.23918378342142
O          -0.23730213158293   -2.86197977854003   -0.71276362568469
H          -0.11473328911835   -1.99856136440825   -1.17928301263063
H          -1.12926928910948   -3.15268974166774   -0.91253463693493
O          -1.17362696673372    3.13489408904127    0.61972941227137
H          -1.51839525487141    2.46582726638739    1.21997328201294
H          -0.23613692206667    2.91519218739928    0.49759961418171
O           0.22824194439599   -1.58082226052698    1.43100056005890
H          -0.41260983840441   -0.75159509712316    1.14207910476094
H           0.03709399533418   -2.26867029230560    0.69546160394175
H           1.15985216570886   -1.20461859706118    1.20091660101105
