    19
        -40.91482308
S           0.68640727112843    0.19359064719994    0.75904786260586
O           1.17254031992056   -1.02766828129750    0.19868675059167
O           1.05978317843145    1.39751140345787    0.06386718653966
O          -0.85393354986014    0.16987841696829    0.86237564740718
O           1.11380179378767    0.26645177014435    2.23815821429216
H           0.85756085946420    1.17417805770725    2.53985721067437
O           0.26158311853331    2.72347654268617    2.25270533981521
H          -0.69626890501335    2.77192891905460    2.19599387260716
H           0.59983334142348    2.65748938458587    1.34368483875548
O           0.00200057307379   -1.14478198145876   -2.42081585058053
H          -0.42796882360742   -1.92583981326128   -2.02973872115829
H           0.80373892894394   -1.02858151733985   -1.89771468866015
O          -0.52993248512458   -3.05453363237052   -0.53223883460513
H          -0.12687709754497   -3.91881252907633   -0.43259169985378
H           0.05733580475802   -2.42222879135347   -0.08676381557989
O          -1.27781351590317    0.94963621772694   -1.48863116012027
H          -1.20391869929686    0.45607328676384   -0.06451780098623
H          -0.56374081880951    1.59635510032586   -1.50585147768597
H          -0.93413128435447    0.16587679959188   -1.99551285402818
