    19
        -40.91890439
S          -0.74690317721492    0.37483084346009    0.70560893768628
O          -0.80531265265798    1.73008373438446    0.20945146699681
O          -0.77811527501644   -0.59581862146731   -0.42838292737820
O           0.41383091835294    0.12361737722501    1.53404344935861
O          -2.01012807368118    0.06955043818914    1.55914061756078
H          -2.74364477837698    0.07262443014969    0.90837553820983
O          -3.41072709106808   -0.27688870726981   -0.64576054105971
H          -3.86273280143320   -1.11690615092620   -0.75489062763296
H          -2.48037137229186   -0.42287649144095   -0.89531763184883
O           2.42334882348845   -1.34924197368476    0.81313316800889
H           2.26523849460589   -2.25216098821205    1.09509293794969
H           1.72417599192896   -0.79527171513396    1.24718610662913
O           1.60528105642370    1.92617762384896   -0.70159308796169
H           2.12356901450404    2.01244028502673    0.10297519012470
H           0.65648538981496    2.01313321075525   -0.41595285906180
O           1.49486017480376   -0.49573836810511   -1.38662446117675
H           2.00824794876592   -0.93965949621866   -0.61554832521550
H           0.47700785840838   -0.60500698988047   -1.08490828665618
H           1.64588956102498    0.52711155929862   -1.24602865387013
