    19
        -40.91392405
S           0.78371984394903    0.15289795209273    2.08834352263973
O           0.41039384614741    1.46247452319183    1.63912546572477
O           1.55568519788089    0.02633247391583    3.26870467927083
O          -0.41790722921904   -0.77223300273030    2.13120301643513
O           1.65432595285924   -0.45522688766490    0.88165146585399
H           2.10598708109168   -1.20676812813465    1.25798542551136
O          -0.50983452915412   -1.88682233861186   -1.72264531245348
H          -0.89612472019540   -2.09336786148529   -2.57486381409617
H           0.16482156421304   -1.18530892025716   -1.88060495385833
O           1.11646060848288    0.22693658782960   -1.85195170752354
H           1.59810481145887    0.08541192162085   -1.02901151400383
H           0.49263007667458    0.94590331158963   -1.66491264599370
O          -0.74359589054269    1.90623218170522   -0.65785117045039
H          -0.26701696136421    1.84588636081099    0.20354399461407
H          -1.14419551674392    2.77650087541816   -0.68629378376082
O          -1.81774950465327   -0.47633631649046    0.09929577220890
H          -1.05733024582406   -0.64640691608554    1.29075322888030
H          -1.60032451250133    0.41159557716619   -0.24710133865777
H          -1.42804987252434   -1.11770139390022   -0.54537032032693
