    19
        -40.92136499
S          -0.67029755423340   -0.81197701688930   -0.11089402168230
O          -0.87069469713684    0.48389375132551   -0.71288609002764
O           0.69940795061476   -0.77270320967146    0.62648139612443
O          -1.70701568143164   -1.23278561950464    0.77607933117692
O          -0.43299158251165   -1.87960307917380   -1.17324403821015
H           0.48901725470951   -1.71154516378589   -1.58832483995545
O           1.88069664609577   -1.25205262120130   -1.99435697870483
H           1.73240919690252   -0.30092487432464   -2.22456423082341
H           2.37286535199503   -1.25483497461506   -1.16825310858273
O          -1.93954100748955    0.45493257580449    2.84185368104428
H          -1.96483029551516   -0.06818986473571    3.64557259597413
H          -2.03858019942992   -0.17468888616890    2.10108986717770
O           1.08404196692982    1.24155850918439   -2.31968242432849
H           0.31793223399404    1.08037408883049   -1.72761885240895
H           0.72121935969833    1.52971758260397   -3.15942071203511
O           0.26119868909018    1.45145054500737    1.75103045272111
H          -0.52270478903875    1.21953737190784    2.30376953651801
H           0.68084296061973    0.09717333110528    1.15688308548690
H          -0.09297580386613    1.90066756430180    0.97648537054440
