    19
        -40.92175600
S          -0.42800060654996    0.85140828841098   -0.45184306953514
O           0.22008352386522    0.80045989554118    0.96051508743045
O          -0.30316058113341   -0.45625187523229   -1.05377240830585
O          -1.76629311889904    1.34158459732167   -0.36943079924923
O           0.46785642064542    1.85533962077518   -1.16731442643836
H           1.44181526072459    1.62411599562672   -0.93842550225328
O          -2.76121674060283   -1.12515932572453    0.06361301584445
H          -2.07980123685439   -1.49699843082592   -0.50794765723904
H          -2.78733991093981   -0.18533847854542   -0.18005612919213
O           2.17566904812720   -1.39391935614809   -1.05170868679683
H           2.36554693416986   -1.74436763026209   -1.92406376200848
H           1.21897901715114   -1.17879401281044   -1.04234899020185
O           2.76102931895877    1.09458603925875   -0.41394000382673
H           2.65470665115309    1.12960362614065    0.54108189219542
H           2.71976602692298    0.13541934660423   -0.65713803017035
O          -1.46536553187157   -0.57250764182903    2.28970968163421
H          -2.01400225027137   -0.93078621057090    1.54369052514851
H          -0.37744926556039    0.24594861136352    1.56534220701029
H          -2.04282296896725    0.00565695112655    2.79403708589123
