    19
        -40.91864568
S           0.94941718884622   -0.63193300330126    0.30626220608753
O           1.06890632801425    0.25950081727374   -0.82356394609151
O          -0.53781494891290   -0.56279214005688    0.79773878074477
O           1.28881511333762   -1.99449560388151    0.08679760892157
O           1.71070090959413   -0.04091727968931    1.49185435742665
H           1.69867973032920    0.97902107845152    1.36784476115016
O          -0.61249744598482   -0.87070348453224   -2.59288762049915
H          -1.11415788115228   -0.16732263932240   -3.00989877367401
H           0.09986664080271   -0.44116530978648   -2.08307393995199
O          -1.16739160743039    2.05582939984388    1.39181885447627
H          -1.51123878110511    2.11037866272375    2.28563542050131
H          -1.10561116018363    1.11211064699610    1.17251898471162
O           1.44005939802951    2.38719322296239    0.85457371124639
H           1.46077070000234    2.13338983404896   -0.07811497801033
H           0.49124447797607    2.51376615105096    1.07304606025283
O          -1.35407951946973   -2.48069448241623   -0.60461140558552
H          -1.24630441836128   -2.02920707953461   -1.47174014975891
H          -0.54354138300759   -2.99135766965423   -0.48161232717962
H          -1.01582335154940   -1.34060113026913    0.31741237509496
