    19
        -40.91624665
S          -0.49932762948107    0.68028087710794   -0.36480259072797
O          -1.41878828844084    0.17290506032009    0.62345830929431
O           0.91382483116106    0.70161722291151    0.24798789605441
O          -0.47919634423167   -0.01330912710897   -1.61276521451355
O          -0.78945070440274    2.17126250441793   -0.63089858165206
H          -1.09662344701178    2.56010612635758    0.22964047743890
O          -1.80071509460628    2.54581249883566    1.72604134230670
H          -2.71269504284083    2.84405896957638    1.76871623224672
H          -1.81989977494480    1.57394742946144    1.64450575619457
O           2.14161341143253   -0.79338552522430   -1.99719008789108
H           2.58157388120289   -0.21657857636136   -1.36847622366064
H           1.26544950089407   -0.40618786092463   -2.14565602511903
O           0.49815425187029   -2.58327030942515   -0.76608607464237
H           1.28364781669001   -2.25460891417423   -1.24364651421492
H          -0.23762346026303   -2.10276021928037   -1.16189792970310
O           0.71298145040045   -1.41438069988717    1.56633920506076
H          -0.20647647870168   -1.30452268215018    1.83185327613395
H           0.69574667843164   -2.03070612754062    0.78349735415044
H           0.96780444275079   -0.13028065696243    0.86937940324697
