    19
        -40.90805039
S          -0.92224118240709    0.55034306979291   -1.20052825556650
O          -1.75737682069348   -0.46780062299529   -0.65538793030611
O          -0.91405780419517    1.82389262574992   -0.54528472324380
O           0.50842998889724    0.03686648715426   -1.34544700254522
O          -1.36166726451439    0.79623731052803   -2.69098766870334
H          -1.00980021975830    1.64786361819161   -2.94101652108753
O          -0.72583320557980   -1.48664815187100    1.68190735067638
H          -1.45722330016781   -1.22044073892368    1.10676776101156
H          -0.31584653770686   -0.65425331891082    1.97021619370494
O           0.13111588893151    1.12280952964072    1.81309371178082
H          -0.26325743101711    1.48896206410124    0.99855231970163
H           0.08408591824993    1.81309682168852    2.47811976182032
O           2.65978252569808    0.97899354942170    0.46430893828672
H           1.93436560120158    0.97623071670962    1.10124107482649
H           2.27524390184826    0.68435461222802   -0.36478610146080
O           0.53536028343182   -2.27311221353881   -0.44476973397473
H           0.57878591944406   -0.96840486973685   -0.99866539953142
H           0.17577909682885   -2.08938093061479    0.47543376433169
H          -0.15564537990832   -2.75960958827037   -0.90276760087733
