    19
        -40.91892666
S          -0.33483142349123   -1.28350578746850   -0.54539105330598
O           0.02699787947401   -1.24435333817542   -1.94597707038945
O           0.84979700209104   -1.12588535493701    0.31905637031898
O          -1.37683619312723   -0.36174274140786   -0.16611410149290
O          -0.88050636288575   -2.73767181109720   -0.24789052857623
H          -0.30692640473079   -3.31370121318152   -0.74475513429526
O           0.81160329274117    1.21129227497425   -2.26879194563390
H           1.48837924868088    1.21611915912916   -2.94923072282415
H           0.43823169009784    0.29293620051417   -2.25307290676448
O          -0.80355152386735    1.91566304254021    1.26321768127891
H          -0.83327498309458    1.26903976611243    2.00431242354135
H          -1.36579268586701    1.50346119839843    0.58804859090602
O          -0.84319358141108   -0.46320336223267    2.47946189577240
H           0.01449909941877   -0.89424881084273    2.42119281749147
H          -1.26740484005212   -0.64209073741481    1.62354624008001
O           1.37692741548819    1.29549111012790    0.20721724921072
H           0.50870091613483    1.68553478572194    0.68814175377970
H           1.26912397131108    0.25570642057645    0.32458147515910
H           1.22805749309720    1.42115919866302   -0.79755303424836
