    19
        -40.92136381
S           0.48571433299461    1.04365893775246   -0.77243429365496
O           1.09375236208855    2.20724546726416   -0.17624173341723
O           1.27734744341968   -0.17855753712472   -0.54767393612825
O          -0.89573948658204    0.83710376970867   -0.39956911844649
O           0.50405365717853    1.26296684026672   -2.34497067651600
H           1.25631058410765    1.82912193453726   -2.49265088937036
O          -0.33130328567461   -1.99732055463827   -1.69270599303272
H          -0.70731568478533   -1.57950741774014   -2.46934342790143
H           0.37892455471703   -1.40349520301099   -1.38414254492202
O          -1.60202654346594   -1.48232204477213    0.59198439933182
H          -1.30427377841879   -2.00248403870108   -0.18684564183946
H          -1.63213878455495   -0.56464687354852    0.23610219582838
O           0.14091297071181    1.50412712200529    2.17821454067140
H           0.59598341677222    1.89649013091632    1.39885359380912
H          -0.78963433017153    1.71382214103340    2.05891571452151
O           0.54541616413965   -0.97292858332369    1.71716017033370
H           1.02102112643959   -0.76417289673101    0.83150714695815
H           0.39308631446067   -0.03533278105780    2.09968769555012
H          -0.43009104313365   -1.31376842179268    1.35415281640250
