    19
        -40.92343663
S          -0.22671428522338   -1.57511502381691   -0.55985812614706
O           0.91610561286281   -1.20854703284358   -1.36891060419026
O          -0.05509222160907   -1.22206850547301    0.84059924301740
O          -1.47533932774555   -1.03942238484244   -1.10410527946693
O          -0.36233483513995   -3.14404017768932   -0.60615315046272
H          -0.49380522962173   -3.31509100193986   -1.53349548772797
O          -1.16582818497826    1.00939624920345    1.79329348315142
H          -0.93851545811239    0.07004925436630    1.63150482473416
H          -0.35079507031684    1.41260425318869    2.11207911972330
O           1.71213452004513    0.69801051250511    1.32823757262370
H           2.60575338728269    0.39032635817219    1.48598621261176
H           1.16458526540454   -0.10652448747509    1.19152827409276
O           1.02068902944558    1.39763306156944   -1.17117355822362
H           1.41649223289750    1.40425022969677   -0.27452189725251
H           1.08916397033138    0.45342228156119   -1.45023331761795
O          -1.42720484067159    1.41194897855642   -0.70639808807479
H          -1.44371341738869    1.40343524540304    0.32110822497449
H          -0.40096092256884    1.55091687027218   -0.97365399025334
H          -1.58462023524030    0.40881529943011   -0.95583345520598
