    19
        -40.91855592
S          -0.72071619356594    0.49046459018809    0.77232481655859
O           0.08669930720922    0.00613513597586    1.84232013591846
O           0.01868326399532    1.03664046228114   -0.34900151506798
O          -1.68560094273312   -0.57941564687995    0.25741631922418
O          -1.67910947405702    1.57571659171786    1.30326792384026
H          -2.03312706004878    2.03431548578826    0.49896715776791
O           1.73819252677840   -0.95188726116949   -1.10435462584032
H           1.27081525645478   -0.11055966236481   -0.97711824797453
H           2.23748471336851   -1.09348208017375   -0.27614465440626
O           2.57203883445512   -1.03341215301239    1.46734565717318
H           1.68042580154476   -0.75073597880827    1.73648109251489
H           3.18679858572509   -0.45661006736330    1.92396482174097
O          -1.98652817494580    2.59991056536768   -1.06437938590883
H          -1.16393329545517    2.08330200546553   -1.15557972634697
H          -1.75076939510915    3.52471908655156   -1.17214423603022
O          -0.37505842446337   -2.41857437285558   -0.84500372529139
H           0.51331449759812   -1.96603653457152   -0.98181369152893
H          -1.18406739167282   -1.38520218628976   -0.15744160304584
H          -0.72554242503081   -2.60528797986273   -1.71910651331993
