    19
        -40.91904998
S           0.21284519480780   -0.25525530074187    1.11947087306626
O           0.90888803049464    0.84353584889995    0.29341356758072
O          -1.16858637413199    0.12663808403995    1.27170915410589
O           0.46058203375249   -1.53487381200892    0.54056943938755
O           0.91378492679710   -0.16954227594028    2.49808192839887
H           0.65984253767338    0.71661158524909    2.85722206406655
O          -0.35421395805879   -0.33712408883808   -2.91114120873837
H          -1.00425898572262   -0.69284315817091   -2.26417360591482
H          -0.69870384991296    0.50706776318836   -3.20596709702161
O          -0.17730762469457    2.18740626637972    2.70306849066802
H           0.24537226054575    2.72252700023034    2.02573182293948
H          -0.90118367138875    1.71153862775498    2.26541874390261
O          -1.95215974856453   -1.24227311795922   -0.94987535828009
H          -1.53676394001548   -2.06992076108125   -0.69180667381323
H          -1.88841461661583   -0.67553284182240   -0.16450078121643
O           1.90821077359865   -0.47897112169796   -1.56422704902347
H           1.79316582818390   -1.32169090674249   -1.10650376210750
H           1.15908721969401   -0.42764011755234   -2.21218217501592
H           1.41981397356766    0.39034230679249   -0.50430838296959
