    19
        -40.92267744
S          -0.26649290710177   -0.90209624451979   -0.49875774142744
O          -0.23010803889888    0.10855820907849   -1.53117143033324
O           0.86830252636593   -0.72768236380502    0.44189349111274
O          -1.52006255795814   -0.91512113522189    0.24062854268335
O          -0.06221491014408   -2.28839952718826   -1.17056161638616
H          -0.13591786646534   -2.91266837666619   -0.41471423262617
O          -1.58216901175559    1.67481542761045    0.64013351645692
H          -1.77968708430496    2.01485475240254   -0.23695416316380
H          -1.71713025927936    0.69911611434661    0.57823481342147
O           1.41804858677045    2.13090264233222   -1.48634662983168
H           0.77801972756702    1.40281413969236   -1.68209808704074
H           2.25636563697161    1.86344389397264   -1.86807426732531
O          -0.39568158327765   -3.12475128019309    1.29317062793003
H          -1.10190777956227   -2.46139739128366    1.23467464691355
H           0.36933688804854   -2.65639405827109    1.64266433982556
O           0.93746284816784    1.66938120736159    0.96533527558655
H          -0.08273751298180    1.81618851045521    0.96531068855713
H           0.99669176183864    0.59159775757208    0.83360575294415
H           1.24988152464889    2.01683771824948    0.05302645857966
