    19
        -40.91493719
S           0.16075950448246   -1.69317387465650    0.20484349124389
O           1.53722415990565   -1.77100349058489    0.58645513941387
O          -0.61998617735557   -0.93494703889519    1.26278164948722
O          -0.14342130703967   -1.18366993917675   -1.09551811916112
O          -0.42755730677172   -3.15613123717893    0.27398011439622
H           0.00523093425879   -3.60243508323414    0.99863767894007
O          -1.37275508696794    2.42899941734815   -0.20056910109877
H          -0.57284344196270    2.17947592234328   -0.73137127486599
H          -1.04401331061775    2.74581107515341    0.64261268303351
O           0.76460576004914    1.42023121384364   -1.37617052675013
H           0.48992944367544    0.50716662948973   -1.54144980519817
H           1.42728485473631    1.36192777837467   -0.66242397183304
O           2.41051800437396    0.78611991119257    0.69945779005303
H           3.36467142765841    0.79931856169588    0.59956365472990
H           2.15360013803252   -0.15112608674650    0.75733701865853
O          -2.41253075838129    0.05463688662190   -0.10748152832480
H          -1.46639095689365   -0.50078123610441    0.76384125042448
H          -2.15287642576609    1.02597830921586   -0.13131005405741
H          -2.10144948603756   -0.31639769891694   -0.94321609922120
