    19
        -40.91624669
S           0.89702808016000    0.10731153904745    0.15856959175318
O          -0.13545952339698   -0.79732468459585    0.85739232716098
O           0.91530264067852   -0.21977766099841   -1.24572002338591
O           0.64133237480004    1.47550429286101    0.47741005095732
O           2.23019830322361   -0.31292263751492    0.80977320697228
H           2.53399175318603   -1.13153361654715    0.33645328831422
O           2.66833614224358   -2.17520241194285   -0.93844942529071
H           1.98641855707480   -1.63437856444570   -1.37892863043335
H           3.46951363230643   -2.10256565442434   -1.46317186961818
O          -1.54467604751958    1.45657029768662    2.16631994190612
H          -0.66237315553959    1.63197125214274    1.80537149595444
H          -1.54201882712714    0.53401233579017    2.43166589701899
O          -2.04807503532321    1.75588189208962   -0.49503149154557
H          -1.13328590354256    2.04831727576675   -0.57846349187420
H          -2.21953666187117    1.77805968028971    0.46565984854789
O          -1.83157194482670   -0.80719209938821   -0.98085610226628
H          -2.10302744438684    0.14702168030949   -0.88676569657279
H          -1.21136040154396   -0.83075315307498   -1.71751742788513
H          -0.91073656860469   -0.92299978305347    0.17628852022772
