    19
        -40.91923806
S           0.87952248333150   -0.33840985700573    0.24832444687808
O           0.69240797034004    1.07030486463206    0.49881033476569
O          -0.44882700824568   -0.89699625532937   -0.36290571699775
O           1.95721464477810   -0.68820908299508   -0.61387103023236
O           0.96140440235526   -1.07954963985308    1.58113562285914
H           0.39748854756695   -0.53370622873365    2.24933398285471
O          -2.53348708463514   -0.47010693967680    1.41049923062857
H          -2.96646360552119   -1.30663232326011    1.59135768700675
H          -1.93451528602016   -0.61948416341541    0.66224929336591
O           1.01690522621673    1.76046365940649   -2.08468893681027
H           1.97166376473019    1.80863740655025   -2.17345253464990
H           0.84432172631429    1.70218857508635   -1.12792974463856
O          -0.51446337546134    0.48970619436199    2.88775493033309
H          -0.22110212755604    1.22399603399717    2.33073834653460
H          -1.39362321359476    0.22658816818024    2.53817857265721
O           0.18638039499111   -0.66443958925267   -2.78917817559325
H          -0.32856895586998   -0.87085470635075   -1.38457624619052
H           0.39667853066680    0.29918938686501   -2.73583890170427
H           1.03706295563588   -1.11268548324655   -2.72594114106982
