    19
        -40.91454141
S           0.61733843433712    0.04015180023372    0.97665661296395
O          -0.32364806449937    0.50435300304513    1.94414408334826
O           0.20226507675504   -1.11015910744536    0.20166412564105
O           0.99652290680812    1.18129480626809    0.03882831546143
O           1.96942898874790   -0.30475676973310    1.66118715641282
H           1.95581985160949   -1.26883631211114    1.88218897831714
O          -1.92231524338570    2.00203626045461    0.38298166282612
H          -1.47063434473556    1.43817620468286    1.03685881005440
H          -1.50543310060142    2.86378592001199    0.44855912614639
O          -1.90762274748846    1.00525983937303   -2.11682035937007
H          -1.94828731473236    1.42510988509969   -1.23006404542947
H          -2.62510316168966    0.36991125774000   -2.14029275366062
O           1.49318231202835   -2.86767259537555    1.72906963844437
H           0.80220859404172   -2.55199607658643    1.12024984025059
H           2.07352933325241   -3.44377769859430    1.22502184722417
O           0.57501431928410    0.10887508869761   -2.16907272793741
H           0.40825485384444   -0.71998643229017   -1.69650641524163
H          -0.32200121989806    0.49048221787595   -2.34499228657741
H           0.93148052632292    0.83774869865030   -0.94966162888024
