    19
        -40.92079114
S          -0.50400912814814    1.24169530242345    0.64192998756825
O          -1.29630060490151    0.18047470938773    0.03614245011048
O          -0.35286188891275    1.12569755572093    2.06946104007977
O           0.77777010055157    1.40087916206221   -0.04768626239592
O          -1.31573696320726    2.57140220793782    0.36292468699073
H          -0.85037306477627    3.22479774161978    0.87572209719279
O          -1.08479705826648   -0.04058520977649   -2.56917896805668
H          -1.65813951660854   -0.75385370823247   -2.85706008668782
H          -1.33100875096403    0.15848313716248   -1.63506275421962
O           0.27507211648073   -1.97239648654198    0.08563822549676
H          -0.50756127195930   -1.38811386837603    0.14882715201756
H           0.76997254186492   -1.79391255210545    0.91959440292580
O           1.27637077448838   -0.94277983302382    2.29576424134716
H           1.19116660774261   -1.28941915409779    3.18583288508802
H           0.73998380678893   -0.12084469695794    2.27011779069272
O           1.25844107304571   -0.44705587636483   -1.62275980612032
H           1.19445653837801    0.39379543203628   -0.99021724554867
H           0.97171865741356   -1.22496142605035   -0.95182360315816
H           0.44583603094604   -0.32330244685687   -2.21816625338175
