    19
        -40.92136403
S           1.36197148313794   -0.03786626432170   -0.25656627339365
O           0.74653442832471    0.29723847447947    1.00777736388375
O           2.09904894396928   -1.27699495496497   -0.24812857637006
O           0.37637435366795    0.01886595809505   -1.35067914317240
O           2.39977598784673    1.12024192733008   -0.57738332456454
H           3.07067257201192    0.69357118126881   -1.10283185805940
O           0.07413451964130   -2.47982989674944    0.93404156149467
H           0.14782447375850   -2.11553891735743    1.82054684044537
H           0.90001428574225   -2.20736537079596    0.47335825192169
O          -1.82119034837563    0.81708145310096    1.06589524829532
H          -1.77076155050193    1.55948163198959    0.42385079027569
H          -0.88064459026120    0.70320961210802    1.33347810169825
O          -0.77332662733489    2.38509967529597   -0.81637420285211
H          -0.33053977911885    1.59247978724641   -1.17397676114047
H          -0.07309759215563    2.96554834319422   -0.51318796061212
O          -1.63588836175526   -1.15608876368894   -0.42112820835670
H          -1.10209049952934   -1.82436194665743    0.14164018820428
H          -1.89014511198437   -0.33020162932703    0.25091426744136
H          -0.89866657713364   -0.72457029018016   -0.99124631510377
