    19
        -40.91892669
S          -0.63830787035768    1.06181537391499   -0.72343659793823
O          -0.24428230576272    1.24975297895850    0.68553122881358
O           0.35781199853744    1.60101964376071   -1.62407969380029
O          -1.00251111028881   -0.30961685858249   -0.97930194482023
O          -1.94956054455584    1.92544322675514   -0.91083673649556
H          -1.63506189724499    2.82066659877668   -0.99687691432344
O          -0.12627680450500   -2.33627626419240    0.66125702804720
H          -0.89442749455128   -2.02383330486656    1.19119996896001
H          -0.35975857715978   -2.07255761276029   -0.24292122845447
O           2.39255445995883    0.03042738843674   -1.24823958685538
H           3.19016472307170    0.54598836500749   -1.38625271269664
H           1.63540268312055    0.60961507520152   -1.52095120354889
O          -2.10911344875249   -0.72823812511007    1.44808892882017
H          -2.03052687980255   -0.53748163197761    0.49835197492042
H          -1.76290942049597    0.05603721061837    1.88385529083203
O           1.49417869736516   -0.47658194355488    1.07396140666433
H           0.78772434788753    0.30176396282544    1.03287174392994
H           0.89637233801770   -1.35312948420027    0.96751974132455
H           1.99852709550133   -0.36481461900676    0.19025933661698
