    19
        -40.91855606
S           0.89937181118503    0.73566293023641   -0.09663335078987
O          -0.08419233857010    0.53164499001422    0.94904383720168
O           1.68581900295444   -0.56105800565072   -0.29840469960065
O           0.37323080893700    1.23372160163184   -1.32400238828660
O           1.98015009940052    1.70258791174536    0.42806344533756
H           2.13420352928145    1.44165101757311    1.37169580831687
O          -1.98057621121546   -1.09802809510820   -0.16088389925655
H          -2.25594175892443   -0.56739721095903   -0.93431179976125
H          -1.48030239064536   -0.48482167006193    0.40129959813036
O          -2.14499094553836    0.68219168323645   -2.19025280884970
H          -1.20916684521808    0.90258831201999   -2.03828556062361
H          -2.61800763742801    1.51570591291068   -2.21182737236208
O           1.71394396810033    0.82925377439446    2.86075180639596
H           0.88387180666779    0.54470602978502    2.43447016505606
H           1.47811239419270    1.47372383589204    3.53267124708850
O           0.10458226045143   -2.39590960734622   -0.96902292168037
H          -0.78177359898839   -1.98912611151264   -0.72087905004988
H           1.07998896837616   -1.33339203588575   -0.62885180255366
H           0.22167705699010   -3.16370525291927   -0.40464025369905
