    19
        -40.92218956
S           1.01766152321430    0.29695423939502    0.46523122785077
O           0.87650771076231   -1.14733226121402    0.31085505710399
O           0.75966309570125    0.98557055726081   -0.79538049847620
O           0.15984906494050    0.80521293663646    1.53573209083946
O           2.48261492254422    0.60033151220032    0.89539467928984
H           2.99837266372529    0.23933238807488    0.14463234408933
O          -1.74913206107242    1.45986916216057   -1.24586515046540
H          -1.83703583363975    2.41259129106127   -1.32011014834405
H          -0.77263003276295    1.27723101494999   -1.18750575458456
O           2.91769532004432   -0.57532803054579   -1.41847136819092
H           2.29094772665640    0.07069910512905   -1.77027855178549
H           2.36703719371726   -1.28786443022927   -1.06775608121308
O          -1.55974582126635   -2.00245873574063    0.54820726337259
H          -0.60620688122244   -1.76615262914505    0.38986098503516
H          -1.56197113333980   -2.61727968891967    1.28497308513696
O          -2.21350928768391    0.39443377472201    0.99471212054435
H          -2.20395516179492    0.84226173986064    0.06145718656379
H          -2.12411315298614   -0.62189204324631    0.82045791961858
H          -1.24204985571881    0.63382008620386    1.35385359186038
