    19
        -40.91739549
S          -0.70639754440243    0.84198164615552   -0.64874335733637
O          -0.50491641201997    2.02154837622931    0.28877152440869
O           0.54714538769139    0.41325547863124   -1.21557471036277
O          -1.43329295616884   -0.22158777230130   -0.00761089702444
O          -1.58682137343546    1.49219133357665   -1.74751910765995
H          -1.72114220694477    0.76611069009228   -2.39448380764571
O          -0.06293552592539   -2.15732780298187    1.27461036627785
H          -0.40103447981552   -2.21514548512373    2.17019985853516
H          -0.63686718744948   -1.52127468264881    0.80821086541081
O          -1.32377182365492   -0.90931902467550   -2.76153312834208
H          -0.37273012960535   -0.83576446739914   -2.61380360271699
H          -1.67524294273951   -1.39957220195554   -2.01132955856163
O           2.07450180059362   -0.57755376870146    0.80481618655968
H           1.76755463154345   -0.27902098148526   -0.06746065746280
H           1.48463755904556   -1.32548371347784    1.03074994632300
O           1.10021776410714    1.40979165531128    2.11268243414164
H           1.76852884645585    2.09536434877167    2.18720556400479
H           0.12599938664364    1.79493584411396    1.09242099014483
H           1.55656717599490    0.60687054827403    1.69839107128647
