    19
        -40.91833241
S          -1.53089510450830   -0.30500680564398    0.73826233731749
O          -1.62286185739684    0.60736193122855    1.85067231587330
O          -1.64157513858950    0.39175969758422   -0.55289268515551
O          -0.37288320094318   -1.17657255977377    0.76797407570454
O          -2.79524688039524   -1.25603217641027    0.81812184169213
H          -3.50665458451416   -0.65712365981807    1.02376651455705
O           0.86328116242488   -2.06928157736182   -1.32680185456247
H           1.75572088418296   -2.27472134790876   -1.04061947743305
H           0.33738458913625   -1.89696061263588   -0.50429203762445
O           0.98233655738861    0.97308872596534    1.86822473546069
H           1.18058115172429    0.03820333022787    1.97483449251619
H           0.00624276640270    1.01503600199991    1.95567064442640
O           1.81535436118289    1.67531412480453   -0.51146211269157
H           1.54166063579077    1.42206963525511    0.41394852131455
H           1.69577220348259    2.62487213501481   -0.57195204266175
O           0.31259813970328    0.30843467603409   -2.03597370271707
H           0.97213367647939    0.88493025026637   -1.49364116169127
H           0.60329299162300   -0.66646123282749   -1.91447884920117
H          -0.59624233321145    0.36108945402036   -1.45936156512159
