    19
        -40.91833705
S          -0.33963838789666   -0.26279427137840    0.90460400231744
O          -0.84281520725830    0.48596169558939   -0.37926497576120
O           1.01043602638764   -0.68096493123255    0.64342798624061
O          -0.54181556038656    0.57798162327992    2.04072279100301
O          -1.27353429617436   -1.46900279814281    0.96142262734949
H          -0.82983748033653   -2.20572555218457    0.39311373490284
O           0.08792508463081   -2.95811769480397   -0.54358731093701
H          -0.18632830767525   -2.57584437784837   -1.40430167813017
H           0.88028437061938   -2.47174400957715   -0.27362204472888
O           0.84569027998501    2.86473089571957    1.85010015640134
H           0.37600941394790    2.04711168957918    2.10554805328049
H           0.25934188382197    3.59239176376231    2.06627495598538
O          -0.91311382034947   -1.35992776725002   -2.45164505898218
H          -1.78793926269893   -1.48412839456663   -2.82458274642312
H          -0.97008232379838   -0.60798537531016   -1.84043940187896
O           1.25740506635679    1.85796339357576   -0.56631772197587
H          -0.07355210012820    1.13572562714405   -0.58823179641840
H           1.21451802022637    2.40389578593303    0.25471698837952
H           1.82704659076231    1.11047268767620   -0.34793854065955
