    19
        -40.91892665
S           0.96639546837219    0.89906334505841    0.56314779420115
O          -0.36734280901060    1.38976661795581    0.16809715091418
O           1.02182829414403    0.60984481007187    1.97999433569956
O           1.39201606569504   -0.18294462376069   -0.28945998596027
O           1.95262140484590    2.10608629440804    0.29697425018592
H           1.81980653496383    2.69062787171739    1.03748486584710
O          -0.43330583667816   -1.66247937098618   -1.72315633567991
H          -0.34566699916323   -0.88910332868507   -2.32537894516933
H           0.41114981961624   -1.66755053410798   -1.24533177121572
O           0.23862106313300    0.79536202987222   -2.52594451128588
H          -0.31618949143250    1.45965842200986   -2.10678853669797
H           0.91558246181068    0.58435185190218   -1.86113152292488
O          -1.78249321850347   -0.64694436530630    0.12212353583871
H          -1.32039772764752   -1.16363952209849   -0.68767958561838
H          -1.29678360454754    0.28628288945422    0.12021418056029
O          -0.57347005566359   -1.42639575230378    2.21644873761661
H           0.12221089051936   -0.72012176158199    2.19628835400055
H          -0.97837510009599   -1.38186205440130    3.08540970212823
H          -1.42620715037521   -1.08000281922841    0.97868829757072
