    19
        -40.90459506
S          -0.35322399508149    0.55012576646047   -0.85227884199417
O          -1.12672283515434    0.74377735259180    0.34466635312014
O           0.48405119873938   -0.61722266592492   -0.82462524044892
O          -1.24493456291656    0.53407611122566   -2.08962970176899
O           0.50951293828988    1.82250909862290   -1.11742849090952
H           1.13332362266605    1.88721079941050   -0.37122303881831
O           1.59024191289908    0.91385090379543    1.15019861473395
H           1.57205909709689    0.06356797206708    0.68750319359229
H           0.78142689701071    0.94568643656028    1.67295814231921
O           3.66217548706281    0.78778127849629    3.13557440101153
H           4.41153205819677    1.31492225361263    2.85450906448913
H           2.99246798365095    0.87061553605526    2.44375117586206
O          -2.73437170153813   -1.42786493393124    0.15026465312085
H          -2.19448874452700   -0.65220769281690    0.38548526963053
H          -3.65108818284747   -1.16244640366944    0.25159203030420
O          -1.58314515256506   -1.95301184075112   -2.20062047817201
H          -1.44480734784675   -0.45950201220326   -2.31119535990381
H          -0.68341527214767   -2.17519372577906   -1.93245132860311
H          -2.12059340098525   -1.98667422381666   -1.37705041756559
