    19
        -40.91271941
S           0.05240161766366   -0.42757749592734    0.32440126418862
O          -0.42545027006802    0.36762577020711   -0.78346784404497
O          -1.01563581394527   -1.47066030646645    0.70761218911001
O           1.31424355979978   -1.06313848883266    0.12996465276375
O           0.11094844353345    0.48037532711464    1.56979921627298
H          -0.64852030732831    1.15590933059017    1.45122136874107
O           0.24842755189903   -1.52597367713838   -2.59073346329229
H          -0.10135953095641   -0.75576265769780   -2.11060064187428
H           1.19669154941450   -1.38461970058377   -2.64696318992970
O           0.93500072402770    3.31895357728692    1.26958916083144
H           1.20845242462998    2.40718827479723    1.41660851610685
H           1.20417315084841    3.82176743205436    2.04121539416718
O          -1.54628270112011    2.23905073224923    0.82146569112268
H          -1.48438657098573    1.82808897422356   -0.05492693899560
H          -0.88179330822389    2.95041779916829    0.83539037617069
O          -0.10569705189357   -3.37978754131216   -0.70097480036181
H          -0.78932878913075   -2.32766270872323    0.20934906688762
H          -0.06166822884555   -2.86622920620134   -1.54124171391870
H           0.78978356070007   -3.36796543475917   -0.34770829383348
