    19
        -40.91413656
S           1.03590252874774   -0.26347484195935    0.26560563160228
O          -0.36672243300454   -0.00960525236876    0.87585612297963
O           0.91679254980502   -1.35837550235900   -0.66624361922599
O           1.56313201629489    0.95176740434319   -0.25488001062964
O           1.86447472017291   -0.70771967537798    1.48745778206731
H           1.67359960420570   -1.67380728519389    1.62492784203612
O          -1.54030920713212    2.60736358167148    0.77187226811076
H          -1.04731220108779    1.85004867197750    1.11169415181396
H          -2.47117856357098    2.39077261152859    0.85647730685349
O          -0.46937504056106    2.09652204018419   -1.70955742953379
H           0.41898782503969    1.86595869671955   -1.39436074264472
H          -0.87037845232329    2.59231828572632   -0.97334485413974
O           1.24555554919354   -3.20649739236672    1.18834946854128
H           0.99489078523311   -2.82311276700804    0.32617199596144
H           1.97428894312417   -3.81070948466851    1.02599515620110
O          -1.59751838469513   -0.20347485407512   -1.28576958875545
H          -1.28700206603108    0.68971193888220   -1.62253971909163
H          -1.02249533595097   -0.86030494598603   -1.69288405547527
H          -1.01533284747203   -0.12738123966565    0.06517229334869
