    19
        -40.92022151
S          -0.14973086078411    0.50596221631816   -0.76011600118451
O          -1.30448538582829    0.56930362948493   -1.75933951027890
O          -0.49687322791658    1.13913084251041    0.48615207030091
O           0.27025012466396   -0.86776525430402   -0.60832007831450
O           0.94485931419358    1.32474120771149   -1.45286105504432
H           1.51533027735415    1.74974284878459   -0.71337718205888
O          -2.20754386490916   -0.76476002678773    1.32146390544520
H          -1.68026448604236    0.03548038373773    1.14632142097128
H          -1.70558527064882   -1.28112716558732    1.95588009435713
O           2.41951221447945   -0.55961539129115    0.96851834018439
H           3.15992919125929   -1.01743676802252    0.56490751503116
H           1.62931707282793   -0.79998432997562    0.44768634383874
O           2.12915855284161    2.08041292086140    0.65016841634099
H           1.31119002013261    2.24801662261783    1.13289890073459
H           2.41130364499838    1.17696758469139    0.91858867165408
O          -2.35459189466635   -1.66037361370968   -1.19164605428765
H          -1.51932542808918   -2.14137586377033   -1.19205718404905
H          -2.52850909535604   -1.43826026503413   -0.24860536189513
H          -1.84394088851385   -0.29905956820145   -1.66626329173647
