    19
        -40.91120724
S          -0.54485310646148    0.02288525454335    1.07877465175265
O          -0.96593033413373   -1.36256507991691    1.16803961269986
O           0.91834712611986    0.12100277113930    1.07807636959130
O          -1.13793016771087    0.73869588440976   -0.02751860196538
O          -1.03872712112916    0.72072925978886    2.40914746576627
H          -0.90936207582382    0.05520884233553    3.07847978381597
O           0.14308071247400   -2.62509636397404   -0.80457403109962
H           0.43498876904944   -3.47638373852957   -0.47148267740363
H          -0.38081470406370   -2.20626706243773   -0.07035916272061
O          -0.26401902143995    3.15181863034116    1.00539111817881
H          -0.63870376307829    2.38838974137551    0.54987173268625
H          -0.39793360281078    2.98647934722518    1.93999912804456
O           0.07845953295441    0.76974388366690   -2.35809631385805
H          -0.51447495166607    0.33410068650139   -2.97451172918118
H          -0.44319477188125    0.93290000536761   -1.53825873284909
O           1.73358936236345   -0.67220083774751   -1.10467550404121
H           1.19723055224382   -0.05472901972088   -1.73647407765473
H           1.52175827286488   -0.27045300806197   -0.13704926632009
H           1.20848927198106   -1.55425919559328   -1.08477977546643
