    19
        -40.91373479
S           0.61750930797538   -0.64759312810071    1.40943181204343
O           1.30939050743453    0.55681828689746    2.02931290194328
O          -0.80717176812814   -0.45214754087931    1.36640261385683
O           1.23765192491877   -1.01964060874449    0.18062782033729
O           0.90303356640958   -1.77795796053122    2.46141333360553
H           0.40841598367509   -1.58247194773875    3.25570608248430
O          -0.72359889951697    1.72972244801338   -0.36942232745296
H          -0.95315282731449    1.32982342228912   -1.23798741598985
H          -0.97761561303952    1.07986425438942    0.29943451980013
O          -1.10230862633728   -1.86572391114904   -0.98683202820713
H          -0.13933123019721   -1.90210059760103   -0.92197641446688
H          -1.37996013719796   -1.47728800494316   -0.14610996654752
O          -1.34832934781900    0.30669706082541   -2.55856483435281
H          -2.22505307383126    0.35541913692736   -2.94228139402448
H          -1.28467085314089   -0.56796083923461   -2.11542813722946
O           1.84090119178273    1.77744918659688   -0.05454221010076
H           1.63096523566975    1.16999932050744    1.21973446577622
H           2.11765000486409    1.04261430982334   -0.61320496343534
H           0.87567465379092    1.94447712256368   -0.27571383802376
