    19
        -40.91833206
S          -1.56119395650516    0.65713493445931   -0.32904697710359
O          -1.37479655366841   -0.69866370772668   -0.86964749922949
O          -2.28290097993182    0.64365169320322    0.91880306124789
O          -0.30877174870734    1.38602239485767   -0.29317754486508
O          -2.47521761298460    1.41176944483098   -1.38033666913565
H          -3.34276884803745    1.05706902014224   -1.21106016505755
O           1.77165889634681    0.81924783725089   -1.72860948516524
H           2.52533437780263    1.18224317634836   -1.25878225638255
H           0.96284600285295    1.18060704538749   -1.28327057041447
O          -0.04915041775393    0.41476974471273    2.29123709648657
H           0.33327643989474    1.22525592192745    1.94291767356003
H          -0.96462729659291    0.41819797005926    1.93924696218097
O           1.39692078564102   -1.57359941902685    1.39077944334594
H           0.87328193669398   -0.81478131644537    1.77143734625404
H           1.08189218353836   -2.36200827446650    1.83662491454720
O           0.93352898113551   -1.49788116110842   -1.10584873074311
H           1.39538155713093   -0.65079583022054   -1.45088152600241
H           1.18926486761782   -1.59161187868492   -0.11263933458309
H          -0.10395862450637   -1.20662761554810   -1.06774573892779
