    19
        -40.92136404
S           0.61556435480560    0.91452685255976   -0.84060107110313
O          -0.17855471312534   -0.20610505298996   -1.37456159476704
O           0.02050425542546    2.19492050223543   -1.13258362616209
O           0.92463186339383    0.70621207669957    0.55606747791385
O           1.99494237526746    0.85144084270792   -1.62467476649607
H           1.85781676032864    1.41020670089502   -2.38444090313377
O           1.25363209733969   -2.27759800753778   -0.44483446748565
H           2.17582523536357   -2.02377208363749   -0.50928826391929
H           0.75271263087661   -1.60324279899618   -0.94130327597089
O          -1.66664705655707    1.87145290411159    0.86621130512002
H          -1.07976505529146    2.01095545013660    1.61464651291998
H          -1.14651979459133    2.14240842629616    0.07595424816579
O          -0.00119583995568   -1.43418867709066    1.74949731086982
H           0.43018532480534   -2.06778467863501    1.13451526014174
H           0.48313169429097   -0.59667653834503    1.56625085717486
O          -1.90938240845562   -0.62460508263353    0.39245415896384
H          -1.18951955014688   -1.07362644779697    1.08471603874725
H          -1.99639940369515    0.35646544513207    0.67186485246538
H          -1.34096278890992   -0.55098981248785   -0.45989003418933
