    19
        -40.91624634
S          -0.49051492624443   -0.73009556744390    0.25504373168481
O          -0.24761433666982   -0.13906374823612   -1.14651013402919
O           0.78577566698761   -1.05516777526552    0.84211186979247
O          -1.32188243538977    0.14670248445112    1.01624107941192
O          -1.27410519908810   -2.02477033612761   -0.04057644768267
H          -0.60305020716433   -2.71704169627689   -0.27964321842793
O           0.25527654473244    2.54994965729616    0.98822032697828
H          -0.13945673106288    1.86086110049713    1.53456177003803
H          -0.46463821619612    2.82054730477866    0.38705001610152
O           0.87566420522092   -3.45405239904762   -0.26576375295057
H           1.20490080763973   -2.65673898677904    0.18967459555994
H           0.97606942747950   -4.18958357336312    0.34369040528145
O          -1.90279335661605    2.27009656371583   -0.65186326833368
H          -2.00565138174761    1.52375938831208   -0.04196798707083
H          -1.66593150750084    1.88690733772664   -1.49961633236728
O           1.81758573294812    1.15266498521874   -0.57982579200862
H           1.37146906957857    1.83162427111722   -0.00256566732807
H           2.20053284489439    0.50727105600295    0.02410932241107
H           0.62836397827307    0.41612993348859   -1.07237054710315
