    19
        -40.91335392
S           1.78861880516715   -0.03523756729834    0.63892924487971
O           2.02948997017689    0.21556043422081   -0.86125297895457
O           1.22978743541125    1.13653582795077    1.24297988594285
O           1.09878720743734   -1.26323482172618    0.84488356036499
O           3.26029109321460   -0.19284287515114    1.14997105115528
H           3.61889573749271    0.69050891311084    1.19877914512244
O          -2.56866012697686   -0.38501032855191    1.10780203374736
H          -2.22765324961764    0.49334089981926    0.82681286107632
H          -2.25628988760495   -0.51683522550158    2.00434313096466
O          -1.23554669219487    1.78315297488096    0.24450644555355
H          -1.05159372392519    1.55849380509450   -0.67471625381259
H          -0.38890613483158    1.70403259440396    0.71293034304561
O          -1.12726541363050   -1.77900590224560   -0.64617517204337
H          -0.34991966016056   -1.90644949677317   -0.07964029279996
H          -1.81211021409913   -1.39448239952387   -0.04902992923734
O          -0.24564905631932    0.22097743522347   -1.94487189282984
H           1.12535222143862    0.24705217211658   -1.34759745952344
H          -0.21828382939539    0.01770254621525   -2.88241812071898
H          -0.66934450158306   -0.59425899624009   -1.48623560194561
