    19
        -40.91454110
S          -0.28829352343214    1.10287321695789    0.21798189131548
O          -0.33593253984226    1.70512701614937   -1.07497688063385
O          -1.48591372421549    0.17645571949242    0.39841673059934
O           0.93194126600631    0.38930360855928    0.53132694217760
O          -0.51409858815302    2.17427422701134    1.32114367948973
H           0.37437590365924    2.49889690132530    1.61045487916270
O          -1.03395770326752   -0.42615749127273   -2.56107411210021
H          -1.99048081636917   -0.35101927867155   -2.57322881906696
H          -0.70824551889092    0.39530934161134   -2.15065848727240
O          -0.16641131048276   -2.68550024659992   -1.38162689586397
H           0.69959618913585   -2.85218752095466   -1.75742268862257
H          -0.51877157781966   -1.90004253552031   -1.85375306449966
O           2.02478782713547    2.41906910644758    1.86392825277861
H           2.01245743249413    1.60821407637753    1.32529919304019
H           2.32035215478454    2.17068884352476    2.74353892428873
O          -0.33609946041394   -1.90657402347783    1.13569196948431
H          -1.14697998772406   -0.73720218235581    0.78414634940975
H          -0.32832357184494   -2.38035932392038    0.26597922108854
H           0.48999755925784   -1.40116943466314    1.15483290517251
