    19
        -40.92123216
S           0.19060442874595   -0.28965587637048    1.16204317169946
O          -0.24253512798930    1.03749646651138    1.45568493038534
O          -0.84861122150093   -1.19159457681897    0.70707223793065
O           1.30645771102889   -0.29083465622325    0.11716269344850
O           0.88232684542235   -0.89741107610149    2.39984427884069
H           1.11023002201370   -1.81816754051283    2.12066869651161
O          -0.04814993200435    3.11948157653260   -0.24056229085860
H          -0.07392735987422    2.50368563277816    0.51532152417541
H          -0.93934690129907    3.46350048608481   -0.33155573011752
O           1.07619049907717   -3.05988210300331    0.96286026153788
H           0.19763300242388   -2.74265741391850    0.69783167286730
H           1.68486563177761   -2.79535099900422    0.26696911346447
O          -1.88818821774099    0.00167414095453   -1.45167281343131
H          -1.65318891169607   -0.43812806769068   -0.61146909429170
H          -2.37259130243625   -0.64254719356592   -1.97170622911478
O           0.53093210730579    1.06515225909534   -1.79394651093437
H          -0.38489909458662    0.71591068680957   -1.87679784959610
H           0.42939592310902    1.95416586388628   -1.36912833093433
H           1.04280188821913    0.30516239058031   -0.75861974157507
