    19
        -40.91821033
S           0.81500596824681   -0.44596871342665    1.75518398894204
O           0.67801997501198   -1.67081664531209    0.94870609810341
O           1.56726574797447    0.56271212334238    1.02395083606979
O          -0.44652935986152    0.03307357877409    2.25780903922636
O           1.69755465393749   -0.86280081595471    2.99443617415345
H           2.48536386812051   -1.20218384940630    2.58076314101841
O          -1.97738325228829    0.59037977972172    0.22632827323709
H          -1.39419202466148    1.25040699513344   -0.18680813872258
H          -1.58848106988917    0.44429086290900    1.12238402970481
O           0.12025888195811   -0.17153389545164   -2.64829135448767
H           0.29126505268185    0.60428871721543   -2.06933123415608
H          -0.43331630081666    0.13202591696332   -3.37024849030434
O           0.26684703063254    1.77821248615487   -0.81967100498580
H           0.79674856585233    1.32235975140895   -0.10250091092085
H           0.65238164479639    2.65188083748183   -0.90360930035479
O          -1.06057429278916   -1.50985624791684   -0.78654506815475
H          -1.59234676386473   -0.68595612239402   -0.39412229039697
H          -0.56708642249973   -1.13951763981016   -1.59025713523081
H          -0.31080188252930   -1.68099712955380   -0.03817667273427
