    19
        -40.91990173
S           0.80239508133441    1.25730862239638    0.24549428838054
O           1.28878513656131   -0.10823965303746    0.54917680782750
O          -0.38188530043463    1.17777582822136   -0.59514255291881
O           0.62179793915348    2.04697913689746    1.42794337346031
O           1.93373281576039    1.91966397302761   -0.63156396830234
H           1.83822054171188    1.53547627016520   -1.50059359154712
O           1.34709520715897   -1.42717870190006   -1.73852998682659
H           1.44893219985643   -0.95091843752437   -0.88678729616932
H           1.96215630304293   -2.16197857901617   -1.71462661415724
O          -1.29872769550989   -1.18033766401739   -1.24498717671642
H          -1.13757608741157   -0.20895278918292   -1.20124059920251
H          -0.47997958927969   -1.52094079166092   -1.65565952709560
O          -1.72949038708024    0.95632675288544    1.89372519200508
H          -2.22065739911324    1.32197186773055    1.15178973616214
H          -0.88256275166525    1.45870826897300    1.90918692200853
O          -0.80970577294276   -1.30444490418659    1.19025415216289
H           0.14387562839954   -0.92789626490241    1.05678556940769
H          -1.30823420621389   -0.48932433066784    1.57916452329597
H          -1.13817166334634   -1.39399858419521    0.16561075821633
