    19
        -40.92136507
S           0.09374821983791    0.26530490081424    1.02418860610579
O           1.02021038870395    0.67788018009215   -0.00215816076269
O          -1.04008518761010   -0.54043914160161    0.32712443556287
O           0.66944134419218   -0.49373909996500    2.08768827946576
O          -0.66347164820577    1.46073091546321    1.59215705241673
H          -1.30689629288923    1.79770206402195    0.86902053299418
O          -2.17113327374066    2.05743202077991   -0.35549227684658
H          -1.49921387049442    2.14827720610975   -1.07652165362990
H          -2.61454814112186    1.21763116936195   -0.50604889539039
O          -0.08723021130179    2.04309769279733   -1.97303507383718
H           0.42577531385552    1.52494836631377   -1.31581335572739
H           0.41022449178370    2.84757835274339   -2.13141642734661
O           1.73354466706737   -2.76873516176453    1.15963930890042
H           1.42519156177624   -3.48511132568093    1.71825443842143
H           1.48785630052151   -1.93983081239014    1.61527542214716
O           0.53355423069253   -1.95621877457707   -1.05936309522537
H           1.02454941551355   -2.42555025920898   -0.34337455168514
H          -0.55340836320986   -1.19083426540352   -0.28817085695268
H           1.11189105463152   -1.24012403789794   -1.34195371859526
