    19
        -40.91965197
S          -0.36605003373489    1.33011982869695    0.68360714228135
O          -0.89210731310766    0.84251830042563   -0.59491181207954
O           0.14743396174612    0.19569387418797    1.46747325863256
O           0.55874030702847    2.41121427113238    0.55148209219250
O          -1.61123240421721    1.85441348128369    1.50507299353217
H          -2.01154132924855    1.07477793710777    1.88056896558972
O           1.08228967716907   -0.56598605228241   -1.66816702286269
H           0.34569575410177    0.07486253662162   -1.57606684669229
H           1.84700541585480   -0.10687283715147   -1.24227644412488
O          -2.23551046616238   -1.36948337543525   -0.43789786098158
H          -2.63630524233636   -1.59312361116361   -1.28002120517333
H          -1.87223152903085   -0.45210625095623   -0.53286142518108
O           2.60547597423706    0.82702949265117   -0.03644271514823
H           2.78023834020395    0.42340130922587    0.81660708872388
H           1.98087206099637    1.55778714472643    0.14297529632298
O           0.18871896220103   -1.93168330378543    0.19365405189623
H           0.22462586710391   -1.11039848577890    0.84860131571801
H          -0.79446327354546   -1.97200676433071   -0.03799028977212
H           0.65834527075770   -1.49015749518564   -0.68340657287348
