    19
        -40.91983420
S           0.86913566540495    0.23307984122660   -0.13533758261171
O          -0.12206409923906   -0.19844615269490   -1.08458935569274
O           1.30904930181545    1.66643849017719   -0.45368241295785
O           0.41811448918114    0.16224132672805    1.23752876704312
O           2.15514056326984   -0.57332031022958   -0.30716028560481
H           1.88951454273805   -1.50170525663864   -0.66143443968134
O          -0.32409682980046   -2.43990733706483    1.16333618597111
H          -1.28183682690116   -2.41433804581898    1.10877989363959
H          -0.04006774755868   -1.53485223682435    1.37905226613130
O           1.06644428127154   -2.70393417465089   -1.10855520463333
H           0.59639561460268   -2.88124870498123   -0.26371106797020
H           0.43236439301798   -2.22446758282705   -1.65596879081794
O          -1.59531068708136    1.94350475871586    1.32880198642041
H          -1.42698834588961    2.57793751384194    2.02866238417530
H          -0.91702837861292    1.24764814663479    1.41917524958432
O          -0.96400874241311    2.45841436187671   -1.21614399633353
H          -1.38550645544995    2.42702046355099   -0.32790046949613
H           0.48246810753914    2.14877573724579   -0.82491794767298
H          -1.16171886587850    1.60715914176060   -1.62593517952384
