    19
        -40.90978681
S          -1.60528644472463    0.40217516302541    1.18326376909613
O          -2.85974068197695    0.31645148705433    1.83563932367602
O          -0.96241574178321    1.76841575661015    1.36984838071504
O          -0.63075781332362   -0.62718528646991    1.40517248670712
O          -1.91164822763419    0.38694607207505   -0.39058275067801
H          -2.81902810474730    0.67249512046275   -0.46902540898447
O           2.17268910170882    0.85779731918864   -1.09444080788203
H           2.33838249103319    1.59789842277572   -1.67940203392830
H           1.47989765899473    0.30195916265372   -1.53228830271848
O           0.18084360243739   -0.55112785983645   -2.11909322362892
H          -0.61750441569879   -0.13755639460286   -1.77389966584148
H           0.20999154128089   -1.42309982042362   -1.68118894192658
O           0.01590699500760   -2.60029270327258   -0.35043500583164
H           0.71368585941389   -3.12679055099502    0.04318173264946
H          -0.28006070202436   -1.97394619755607    0.33309116943856
O           1.44308373837180    1.15725894953223    1.40374706308129
H           0.08011007084474    1.62357682357541    1.38534676073972
H           1.26216188552725    0.24441447398469    1.65953844623704
H           1.78968918744870    1.11061006218323    0.47152700906389
