    19
        -40.92021800
S          -0.30009185041930    0.84563855326308    0.56359289119587
O           0.66237558966608    1.19308194582427   -0.46715416065338
O          -1.36670109767304   -0.05540940821256   -0.03077063375477
O           0.26137394096973    0.26720901559531    1.74308210834355
O          -1.08097601361019    2.12104287260600    0.94977216683786
H          -1.22196819250515    2.61508280405587    0.10405982586893
O           0.34925216509592   -2.38258966609321    2.17606192804111
H           0.46277938933543   -1.41345200481322    2.14948874547351
H          -0.27998984529271   -2.56071347848252    2.87750145027692
O           1.69575118359064   -1.08171161060461   -1.45582340162100
H           1.46339958239033   -0.21079280698625   -1.08090857365245
H           1.79571876315068   -0.95629129408074   -2.40145246294001
O          -0.83231912899490    3.13988515339798   -1.43213525723076
H          -0.37833619285781    3.98542564453092   -1.46797826620087
H          -0.14448968447457    2.44816150986438   -1.39509607037206
O          -0.39585504057243   -2.29843496313219   -0.35975145509779
H          -1.00545896249073   -1.07392109464905   -0.20098919312013
H           0.43292159143671   -2.05092125799653   -0.83178726607110
H          -0.11738618681851   -2.53128990407579    0.56028760485674
