    19
        -40.91941503
S           0.40063181209594    1.50380692350032   -0.44913108013649
O           0.86489584341302    1.49253523362863    0.94329357420894
O           1.17991645720822    0.58824576243716   -1.26278705689560
O          -1.02407146798041    1.28058209942455   -0.55075645985720
O           0.67467346084155    2.95789651484403   -0.98763114784624
H           1.62295123702052    3.02938184947292   -0.93985094744838
O           1.41203994307229   -1.83146849104129   -0.16216478750389
H           1.64852884101766   -0.98851571877577   -0.60383780708887
H           0.64245628193228   -2.13354364206015   -0.68316320872581
O          -1.98908392288138   -0.42709212513467    1.14695551031150
H          -1.72009145013106    0.24593002980428    0.46913356573689
H          -2.58826727575623    0.01905526116986    1.74818336931657
O          -0.73714364018647   -1.38737229121872   -1.69293491763722
H          -0.21675791312606   -0.57749915589481   -1.80664396157181
H          -1.61135964599880   -1.10282585017991   -1.41869721583344
O           0.43450585670393   -0.76487839629995    1.86671708425437
H           0.88608861308043   -1.34075949316781    1.08571625841717
H           0.69193630254015    0.21995516415152    1.59948671449176
H          -0.57184934282845   -0.78343365483679    1.69811250389061
