    19
        -40.91966072
S          -0.91854104661969   -1.43966330599178    0.12402559374064
O           0.02979470738221   -1.63660988464182    1.20945054174491
O          -1.57445924085384   -0.15629896573800    0.16699288467565
O          -0.27732871388694   -1.68045497676148   -1.17784258386914
O          -2.02769709197187   -2.54683131026634    0.27158448180572
H          -1.52621645186910   -3.35614808481331    0.24879099905016
O           1.88225895595425    0.10192383644851    0.88468867390071
H           1.19139808863846   -0.59061342471269    1.09830791451928
H           2.72748445427355   -0.27314240192759    1.13909217329125
O          -0.23488532447812    1.95482432742227    1.32971051987279
H           0.63352016481440    1.56379968107792    1.47962204036344
H          -0.84957235381004    1.20693798694805    1.25067226923573
O          -0.71769743385280    1.99254701044502   -1.26609591515588
H          -1.42475405353351    1.34819370605790   -1.09747874754808
H          -0.50194414763469    2.31976471664752   -0.35887519776700
O           1.11063046979490    0.32195752020840   -1.56736548183225
H           0.53792946696278   -0.57359148058953   -1.52665003706194
H           0.37439788631140    1.10499825779210   -1.54318906022425
H           1.56568166463323    0.33840679253155   -0.66544104896511
