    19
        -40.91628378
S          -0.19742670270046   -0.90511380118483    0.88720836201143
O          -1.29357747010041    0.01413405097271    0.67292670335949
O           0.36573102427329   -1.32033754728164   -0.47588528000418
O           0.84790357596901   -0.43444365116545    1.73647668838693
O          -0.74998672858621   -2.22177925919555    1.48080088582590
H          -1.64572643448857   -2.36035122478954    1.08081026741856
O           2.64335527035609    1.30232259755582    0.76696490359500
H           2.06264278292008    0.60303643827814    1.12410153874352
H           2.77386714109149    1.92519208937619    1.48485239982094
O          -3.09928234255967   -1.89478727589718    0.41207105406456
H          -2.70408929069309   -1.00369235535458    0.36230080002555
H          -3.84201789436093   -1.83986866281238    1.01814184591381
O           1.63585034100819    2.16471354415271   -1.55700502234177
H           2.01463688477034    1.88846382329542   -0.69203500080568
H           2.32853817047824    2.02365967920315   -2.20500220782283
O          -0.44485107836748    0.58158484271477   -1.88004814769421
H           0.30392211520068    1.23369190313792   -1.84603137626094
H           0.06874297212026   -0.61066694894872   -1.17564270506608
H          -1.06823233639358    0.85424174797928   -1.19500570928913
