    19
        -40.92079123
S          -0.35832892974343   -1.42399866574114    0.22615558362987
O           0.62607488387907   -0.63713277509740    0.95610666390015
O          -1.47423150470331   -0.58784304583739   -0.22046346472275
O           0.19344266445769   -2.22334346173433   -0.83720237988002
O          -0.96312634934951   -2.42093871849343    1.29633012895521
H          -1.49981758745540   -3.00708809806026    0.77202786923432
O          -1.02997075351933    1.83296860642131    0.04252466094402
H          -1.35394249236512    0.84569023213838   -0.13454055966633
H          -0.88531779605205    1.82863009875167    1.04731784622751
O           0.84532674540922   -0.39390206914653   -2.62983725886376
H           0.54774458932964   -1.11999450721117   -2.03982909798951
H           1.49359249669713   -0.77993160801695   -3.22196728357390
O          -0.34972693314118    1.28637525935757    2.44851395414584
H           0.38121362604777    1.72194837936559    2.89156764105721
H           0.01112071359878    0.45301987245779    2.06348528723203
O           1.29852466142242    1.34168389954827   -0.69873003161236
H           1.34970483021839    0.61920167886049   -0.04053552603133
H           1.21120676325315    0.86938812200625   -1.55994643234391
H          -0.04348963816560    1.79526680061135   -0.36097762036912
