    19
        -40.91059524
S          -0.82895484665695   -0.13178214028613    0.39402019432580
O          -0.08690502352038    1.02235528301637    0.83786560160940
O          -2.15587587356356    0.11476840116961   -0.06241648767649
O           0.00051253688860   -0.83174346005500   -0.70728073454701
O          -0.86495634632603   -1.18953236697159    1.51483499770158
H           0.01027412947464   -1.17382580747975    1.97042367930035
O           1.45204073330828   -0.37259278571876    2.44400913550172
H           1.54692270377832   -0.07218940499526    3.35089228297922
H           1.11869999802643    0.38172686908625    1.91895004833740
O           2.07752438004549   -2.49332326504037    0.53968182819973
H           1.41537353000574   -2.14472773125669   -0.06430891585252
H           2.18012378711605   -1.84483883706928    1.24235741289820
O          -2.08804982091065    1.68104276882852   -2.25355290554036
H          -2.28814057377149    1.20123398156325   -1.42838725856001
H          -2.62489416065513    1.27848413675198   -2.93942867235308
O           0.51413019661206    1.28310591233557   -1.96881950410104
H          -0.39795284031754    1.53731540914200   -2.24946107163857
H           0.71444058221117    1.83180759972800   -1.20316819163056
H           0.30568690823634   -0.07728456272725   -1.33621145895301
