    19
        -40.90743865
S          -0.68330800932431    0.98016736523551   -0.20120811371338
O          -0.84207670521882    1.02869184803502    1.22233456943101
O           0.75893128931164    1.33339360270454   -0.56745693866286
O          -1.11526787787252   -0.22005439317657   -0.84186090242500
O          -1.47660610954041    2.17217565374634   -0.82448629206084
H          -1.32454495041812    2.94530353023599   -0.28544001685621
O          -0.18069208043465    0.85441421190929   -3.26006367479061
H          -0.68085640924308    0.31445168696917   -2.63996846901757
H           0.55622553674616    1.21335422982098   -2.76172533139792
O          -0.96775602790536   -2.56654886086862    0.55674303774413
H          -1.85226573838185   -2.92272828144047    0.65642875603458
H          -1.03666226270028   -1.82461653110941   -0.06664293799815
O           0.52016108746208   -1.08861054196299    2.25419836622818
H          -0.06154001869464   -0.31585591808825    2.16391193391316
H           0.05078655528493   -1.81386248459838    1.79622889442285
O           2.27299772971049   -0.26060525362977    0.58032230577351
H           2.96088963128733    0.20159573758453    1.06599135260900
H           1.66134437511810   -0.68364490904022    1.27267622131816
H           1.44023998482394    0.65297930770404   -0.11998276057388
