    19
        -40.92246914
S           0.05062961333941   -0.39274034566881    0.99517139195556
O           0.55875121303198   -1.64806315570699    0.49311416880588
O           0.86845852480655    0.74922243155583    0.39684033666232
O          -1.34888312269471   -0.17528854408231    0.78620987746748
O           0.36381565909770   -0.27771325543838    2.50294368653320
H           1.32734018622458   -0.49702970450102    2.56328353592529
O          -0.66491948311465   -1.35639176627884   -1.89602814759471
H          -1.59327843707969   -1.40529110141109   -1.65472411816604
H          -0.17045511068669   -1.66727302972813   -1.11842804567184
O           2.78350376377271   -0.96703755173762    1.84613648199453
H           2.28421050393394   -1.53311384922177    1.23530776742015
H           3.12166435571754   -0.23395683831764    1.32410876648796
O          -2.35171452919803    1.76182815896541   -0.78625110178237
H          -2.56148904237849    2.53041480827479   -0.25314175577650
H          -2.15866141876254    1.03616018318753   -0.16267399845196
O           0.00496839207425    1.20573371339004   -1.86554596757156
H           0.54695400356413    1.00849044139346   -0.62179980414975
H          -0.18226245680393    0.27310906433194   -2.13274374460136
H          -0.87863260485841    1.58894033091106   -1.65177930953890
