    19
        -40.91790590
S          -0.77778071072783   -0.51892473016863   -0.42209604805095
O          -1.72939392647372   -0.34102762955860    0.63663038410938
O          -0.08700966668063    0.68111989779591   -0.81932742770484
O           0.21200453034337   -1.61175297747315   -0.06305133609644
O          -1.49444953969311   -1.12031385125186   -1.67117909205145
H          -2.16664351131166   -0.45005733045908   -1.91494939638679
O          -2.78773979176048    1.15586922007964   -1.46437824105829
H          -2.99952880030246    0.97367628137691   -0.54163075087768
H          -1.95966633130274    1.64860286964366   -1.45537254630210
O           1.98996768407578    1.24747358454545    0.86974435188962
H           1.53843004494431    0.89229642349289    1.65764574282668
H           1.27153564352925    1.43847811500983    0.24809335739774
O           0.26026476127528   -0.10252373359590    2.49196813750137
H           0.48418194248603   -1.01687308418030    2.67794301405885
H          -0.57276759204470   -0.12429513485961    1.99614071610601
O           2.53631555663831   -0.84605725501111   -0.54515863198714
H           2.51296530529661   -0.03796248883757    0.05649441907261
H           1.21385691893073   -1.36146557218445   -0.29404382934140
H           2.55545750279118   -0.50626260435326   -1.44347282310697
