    19
        -40.92158996
S          -0.70251600173237    0.48410188178717    1.20468244614960
O          -0.20697137327599    1.29753152506326    0.10439003696254
O          -2.13278170386689    0.35476848263134    1.27187215838628
O          -0.02087692087731   -0.81656151743593    1.23249385620742
O          -0.24521555409176    1.24692400659380    2.51635440481765
H          -0.84934666104745    0.94115861554359    3.18601557708684
O          -0.27688499317532   -0.24652694827779   -2.07003009537231
H          -1.03794925485396   -0.80857531878727   -1.79002456755781
H          -0.36728887586910    0.55081632968555   -1.51166437335442
O          -2.10853437541791   -1.50024791784900   -0.63831011029961
H          -2.30568620057516   -0.81357705449337    0.02845916801789
H          -1.75166160182203   -2.24061523103095   -0.14209134819483
O           2.39318862774385    1.31648554659440   -0.20238807882386
H           2.61919257360127    1.93100946577314   -0.90356378608941
H           1.45099862649025    1.48962337665007    0.03241250524260
O           1.58506795219262   -1.07051654418297   -0.63674795841088
H           0.86271172412563   -0.82182237643841   -1.38847281790003
H           2.12382122320950   -0.21853563070123   -0.51382181646176
H           0.97073278923902   -1.07544069113951    0.22043477959151
