    19
        -40.91628501
S           0.90033441905800    0.27303261010460   -0.87689788728357
O          -0.11674744224570    1.35779347560381   -0.50787062467343
O           1.36262507158512   -0.35913643610687    0.33947793442499
O           0.35815136287032   -0.60408193133993   -1.86286502558242
O           2.07022526539626    1.05753517259572   -1.51518818183162
H           2.61828342941415    1.40876373040608   -0.76841286199319
O           3.27504433136139    1.41197927371645    0.76331056279361
H           2.64957868168745    0.68643146617553    0.95043766531920
H           4.16014996458259    1.04813094518466    0.84218655992070
O          -2.11182968407129   -1.58266505966074   -1.51116953867650
H          -1.24856947374108   -1.17515438744449   -1.71743337011748
H          -2.03231560730930   -2.50484945307744   -1.76318998072252
O          -2.79797779651340   -0.96943700763060    1.00178889760541
H          -3.63551789971136   -0.50738119085377    0.93462589182696
H          -2.56065126120024   -1.23367008472595    0.08431134529606
O          -0.79849066251185    0.56766095348609    1.76282457115909
H          -0.03977988677293   -0.02763536772748    1.81062444336115
H          -0.46458972233503    1.16014202927299    0.45224660130109
H          -1.58792306954276   -0.00745872797442    1.58119301783529
