    19
        -40.92048056
S          -0.98779705587437    1.23251809069544   -0.28330456401390
O           0.31369187981860    1.84878700583734   -0.12656335816822
O          -1.17888451843877    0.56368970371810   -1.55231684251207
O          -1.27460682887156    0.32714748780780    0.84004160830867
O          -2.06651523864586    2.38851922275675   -0.21754182484160
H          -2.76718373711406    2.06955170902935   -0.77870881252243
O          -0.86495849434605   -2.16820471574110    0.23313788221207
H          -1.18733601538255   -2.68134610195752    0.97708134478121
H          -1.16863361999232   -1.23638316872058    0.38238782295516
O           1.57544389924581   -1.48624463819540    0.13041576191223
H           0.64561058911701   -1.92464519894700    0.12791416670501
H           1.52161907012677   -0.80965227289400    0.92717226172576
O           1.10910438721734    0.24999635943449    1.90079645865643
H           0.13940267727697    0.28039752380783    1.71203104343883
H           1.41837467160023    1.10158311441860    1.56749016895174
O           1.38135337754852    0.11889306343211   -1.77809538584535
H           1.36270324971980    0.95884513738441   -1.27737335087878
H           1.58926935655251   -0.87677836275150   -0.74312650050609
H           0.43934239044853    0.04332604086734   -2.04143789036983
