    19
        -40.91907703
S          -0.57255500833807    1.24971279748791    0.94317454902884
O           0.69411537185884    0.52462354208684    1.17829002854997
O          -0.34426301771233    2.52971857614090    0.31442865428063
O          -1.52467582111065    0.40867616637845    0.25467567356575
O          -1.16164284814348    1.53561251676614    2.38439071886404
H          -0.74480765752249    2.34516836650523    2.66787123341397
O          -0.58656815647321   -1.89117043929784    1.14855083720946
H          -1.21301364891836   -1.21500391530919    0.82359566784816
H           0.07599840493135   -1.36212280098251    1.61197145819347
O           1.54949866982091   -0.06373874380664   -1.07569666498023
H           1.25355648117714   -1.05697591683780   -1.16224464392160
H           1.31177782356670    0.20120018664472   -0.08263184916696
O           0.68000353559425   -2.43642115263420   -1.06359217656144
H           0.11693130440396   -2.35154724254669   -0.23983058494225
H           1.29993360815462   -3.15024698083887   -0.90341163206111
O          -0.31088168787255    1.35305961667701   -2.02906556737619
H           0.87146044387521    0.50425745391484   -1.62412441596908
H          -1.09855030653101    0.83421749171370   -1.81976451713253
H          -0.29631749009063    2.04098047913169   -1.32658675874318
