    19
        -40.91739555
S          -0.57936690316547    1.13667720363239   -0.01490527333228
O          -1.69538535483076    0.79456348805880    0.95876861714071
O           0.71018273539495    1.02643713113662    0.61905933652654
O          -0.68392259947959    0.36830505774950   -1.22701185315677
O          -0.89704904811401    2.62610376958461   -0.30817810099442
H          -0.17796031533157    2.89929089727144   -0.91814805825788
O           1.28393106522997    2.35452494288583   -1.73474086055839
H           0.98470631126682    1.62465744522605   -2.28645937010239
H           1.70143629361200    1.95456520861583   -0.96171835994878
O           0.61406273961427   -1.98851241173754   -1.39706859338029
H          -0.02324319500247   -2.66010590408298   -1.64717105221023
H           0.14065483632339   -1.13654081306733   -1.43648434326305
O           1.11615094580197   -1.59309848678578    1.22542004717027
H           1.11773453390140   -1.91929483400776    0.30243483394593
H           1.22365252262259   -0.63073475639879    1.14440057951049
O          -1.37190527747861   -1.51748828069048    1.86713305783794
H          -1.44885601511845   -1.49334605739294    2.82405471599869
H          -1.62304163397168   -0.18178104328956    1.32989436108508
H          -0.39178167135765   -1.66422254666075    1.66072031587742
