    19
        -40.92246923
S          -0.37255522885536   -0.41803354516214   -0.91225789035502
O          -0.50668416380270   -0.98227437687404    0.49957759626211
O          -1.28841288507046    0.68838418804794   -1.06526320941460
O           0.99597406775238   -0.12078069883597   -1.20970780442765
O          -0.83964725859506   -1.59740431195709   -1.79300748572780
H          -1.79926855427030   -1.69566985617914   -1.57070290116962
O           0.30093623868960    2.38535641550217    0.30684605472776
H           1.06407219455677    2.46074361093118   -0.27147458868192
H          -0.39517830834818    1.96162049358015   -0.22402944654753
O           2.97489043729835   -0.17705194729811    0.60912988698646
H           2.38960404681810   -0.13944667695225   -0.17120991672245
H           3.40695819201202   -1.03240840816802    0.58429821845326
O          -3.18200336780904   -1.19461918314230   -0.73771673191864
H          -3.08550145838767   -1.42205875550883    0.19131820460681
H          -2.88510955179757   -0.27449182235498   -0.82862243510300
O           0.81657707963735    0.43367879948263    2.02063539050079
H           0.05340561966004   -0.39612498580544    1.24354722154844
H           1.73238999375613    0.21371264736108    1.72636140742582
H           0.61955290619633    1.30686840233680    1.60227840947840
