    19
        -40.91923773
S          -0.92613678048461    0.30996781609881    0.03424834564384
O          -0.13684097225648   -0.94202364649394   -0.47545581729387
O           0.02643866142196    1.22835891128990    0.60947097516628
O          -1.71978609361379    0.81184706941417   -1.03596807617940
O          -1.79010049758900   -0.28070753611723    1.14667393618512
H          -1.20329912233649   -0.28721614433542    1.99363349606041
O           0.88946356164465    2.11982189330839   -1.78170495196412
H           0.24802915291062    2.79915228804626   -2.00243964662529
H           0.73106357791257    1.90212382315982   -0.84576024081859
O           1.21919262291267   -2.11012334125297    1.63845382503305
H           0.87394423525402   -1.77824901704370    0.79487338852164
H           0.97204203517707   -3.03518518680283    1.69524409869175
O          -0.05305580465167   -0.16220377677811    2.96846149287299
H           0.52175458480602   -0.91380632782603    2.70592492730521
H           0.33073428114203    0.61949877808710    2.54773732991456
O           0.15104324001062   -0.19403950040653   -2.86329682350532
H          -0.77303119504526    0.03063746253730   -3.01930048415548
H           0.59051423654932    0.66079806264334   -2.63640414951029
H           0.04803029657935   -0.77865161718083   -1.47439161506507
