    19
        -40.92079125
S           0.24172084884942   -0.49819064078061   -1.37874427040783
O          -0.28132217477090    0.86804960902566   -1.31741559601200
O           1.00143060524940   -0.82261325878429   -0.17934289875069
O          -0.77258808972340   -1.46348907472114   -1.71563490364176
O           1.30379926519617   -0.50474576309215   -2.55211226815563
H           0.76776450686947   -0.41940536669270   -3.33436947197070
O           2.39601112397480    1.15096499509125    0.84017726312322
H           2.04977939647424    0.36125518096045    0.36118088130145
H           2.86568037040932    0.82049664641066    1.60860229934844
O          -0.66352761789342   -0.34844619383129    1.84786628992319
H          -1.51650131631815   -0.59192662977631    1.41738639286562
H           0.01332108270517   -0.76279549730131    1.27511248344461
O          -2.57287797847296   -1.06494027011600    0.17773253104511
H          -1.98128057071714   -1.19823778797930   -0.59439379447891
H          -3.12396741199705   -1.84816338852575    0.23000966726077
O          -0.05419474203471    1.88617049793839    0.92723470590123
H          -0.40585623942796    1.03090918513171    1.45855960692340
H           0.95627402030118    1.82084175571193    0.99656263600241
H          -0.22366509868351    1.58426601133103   -0.06841157371923
