    19
        -40.92003348
S          -0.08772122146387    0.48642289774968    0.72472120367348
O           0.90136348987955    1.52843422089638    1.25224951972766
O          -0.45466865130562    0.81121428870605   -0.63334254652578
O           0.45357752549545   -0.84229740440234    0.85963849541102
O          -1.27908239106208    0.67964485477159    1.66541038448335
H          -2.04639783200787    0.05294020545779    1.41606873827424
O          -1.44634027004103   -1.65291674196096   -1.07672268484956
H          -0.74535966547981   -2.11241978579534   -0.60337561587183
H          -1.10619872535790   -0.75137020534858   -1.21277509127283
O           2.69837199263615   -0.62956174264628   -0.58885581016787
H           3.45167850666070   -0.90517926720258   -0.06247069575847
H           1.90229100523777   -0.84616513904667   -0.06632903217439
O          -3.10619695591896   -0.86759395739653    0.80607337733186
H          -3.80394314182041   -0.35471199758380    0.39082550903728
H          -2.60068458556311   -1.30584987869074    0.07226009100014
O           2.07271362127791    1.94218108288246   -0.94605314119210
H           2.48812786197491    1.05135200159577   -0.98196837428902
H           1.25922215458797    1.86916581323217   -1.45981469657061
H           1.44924729231335    1.84671076485334    0.44446035984189
