    19
        -40.91039627
S           0.01660341669579    1.49698994692519    1.22653024554727
O           0.98997179431412    1.74028624109078    0.13983852508664
O          -1.33633514675885    1.72666353371994    0.76129551498090
O           0.22983116009128    0.21347109080296    1.84508315099329
O           0.32464572530957    2.59607197316061    2.31308467120111
H           0.03538822297919    3.40479681774344    1.90052604112741
O          -0.68657221463287   -2.64827663000968   -1.21140665238576
H          -1.36014279329014   -1.99354018020363   -1.00412705143083
H          -0.12350142341234   -2.72248798775049   -0.43513509455478
O           1.39017539417180   -1.68805617152422    0.51668674057560
H           0.93703862082964   -1.04670550929711    1.12228862343780
H           2.28350372421864   -1.79150802120960    0.84901989734666
O          -1.67734936035564    0.04255477542067   -1.16866784960806
H          -2.25751384965182    0.44006149760780   -1.82090797245394
H          -1.64732180290668    0.66812370884718   -0.39743439085316
O           0.87298592896220   -0.11875744783995   -1.44877511247195
H           0.99981805817126    0.75915935065020   -0.80928081696990
H           1.14529888849469   -0.88970745729810   -0.84335130337056
H          -0.13652433323082   -0.18913954083739   -1.53526716619986
