    19
        -40.91904985
S          -0.29556464385709   -0.94329560869223    0.62154122306178
O          -1.62173362634146   -0.39818147395955    0.47447726065545
O           0.26011231575075   -1.58709642192421   -0.52325588287246
O           0.62666553969801    0.20057619714961    1.08551770660772
O          -0.28471420490146   -1.92495474203439    1.81960978823212
H          -0.72568906456854   -1.43254779056088    2.55567979657717
O          -1.49818582932302   -0.03834374780764    3.14494193546579
H          -0.85543652176495    0.67146422568925    3.22811423020023
H          -1.92093944187689    0.07413023602302    2.27852729545598
O           1.00858679440890    1.66300046938991   -2.22384574800218
H           0.15862690775561    1.17158962396454   -2.28377741714902
H           0.78638579700790    2.56036253379018   -1.97159591636473
O          -1.24524999039508    0.20086175005633   -2.15677230402150
H          -1.57321173572823    0.10712692524475   -1.24816324212025
H          -0.94363146692102   -0.67812633100926   -2.40269460460707
O           2.43158721616066    0.11992232390918   -0.62768584317245
H           1.46765787505407    0.22890910839458    0.45744892398534
H           2.17353436741106   -0.75507877709137   -0.94500856594471
H           2.05119973247845    0.75968150942746   -1.28305864598677
