    19
        -40.91966071
S          -1.43252740317290   -0.20758238376022    0.91489322975221
O          -1.82470797572258   -0.93197729653127   -0.30402048165189
O          -0.49793958812546   -0.99518209881958    1.70378471873216
O          -0.94993658750467    1.11783283490098    0.61608193836779
O          -2.74613470765531   -0.05490348358179    1.76893768386811
H          -2.99780866547848   -0.95765107847989    1.93783392765334
O           0.30154416264113    1.74388371769049   -1.71883177484124
H          -0.46073841063044    1.88551624064043   -1.13376413682510
H           1.06847876759090    1.84418860589385   -1.10366897051406
O           1.77467527361041    1.51261802125786    0.46065449835886
H           0.88266039282383    1.50103554956363    0.84492093810359
H           2.09731730948550    0.60632000526290    0.52384853739024
O           1.58840514623895   -1.32315078657622    0.25482901122109
H           1.95752113292387   -2.19476412330305    0.40918865269951
H           0.82463098233527   -1.22328253024499    0.89442379202991
O           0.13196241838127   -0.74429839173935   -1.79477311748716
H           0.22775815667577    0.32155831002959   -1.89362133247521
H           0.83222972523636   -1.02637185810771   -1.12339620472755
H          -0.77739013968200   -0.87378925410532   -1.25732090967387
