    19
        -40.92003359
S           0.46040322958810    0.74736285689879    0.01913243508374
O          -0.49121047516374    0.55920927819016   -1.04663159993442
O           0.48401779840895   -0.35176648714395    0.95495160920951
O           1.86544588747730    0.97120552372792   -0.54506077783247
O           0.19941803242337    2.06834514440304    0.74595504416294
H          -0.71442760246988    2.05899716662790    1.20277006861064
O           0.54164388375113   -1.57799406292776   -2.29072832915264
H           0.65909765240666   -1.38550800044773   -3.22324307483149
H           0.04903162432492   -0.82401409516788   -1.91306632447579
O          -2.04764517141667    1.79567913430760    1.90625375675667
H          -2.28432008345932    0.89255728819227    1.56772152888452
H          -1.92105773429430    1.70904889613451    2.85427712279177
O          -2.19413155611980   -0.62235406924294    0.88279371220351
H          -2.26826628674392   -0.47796005999137   -0.06601351563409
H          -1.24816862903141   -0.79142338501466    1.03626695425862
O           2.55780864313091   -1.45701979957779   -0.54364193665890
H           1.93141564778260   -1.71846053299787   -1.25553995077433
H           2.31956910465107    0.05083746021222   -0.57125010307199
H           2.10137605480730   -1.64674225614677    0.28505338040457
