    19
        -40.91907719
S           0.17463779234555    0.78263342775295    1.46148768419815
O          -1.00032914878492    1.55678527691136    1.78679214771849
O          -0.14515527991868   -0.65226049339387    1.30363891287319
O           0.91396884519604    1.27189190095916    0.32081686610487
O           1.14443810489185    0.85666841849801    2.71049303619045
H           0.57005374963189    0.88549376371569    3.47124261756682
O           0.34636865846530   -1.47915145070828   -2.28352247678205
H           1.09280939592275   -1.31237810453274   -1.63698662712428
H           0.41085070839379   -2.39788626644424   -2.55051205415819
O          -1.57915389079943    1.72531965545239   -0.76527215337827
H          -1.60149866965364    1.84260256780430    0.21086387362577
H          -0.66962816909240    1.95103808391410   -0.99947498346139
O           2.01418051558985   -1.03725531544757   -0.32971774178344
H           1.89033822487071   -0.07431501167047   -0.21649294493220
H           1.52204582756003   -1.40409316395967    0.41656122542570
O          -1.53881361300570   -0.79999613368215   -0.74398030601897
H          -1.68473646120536    0.22160383937264   -0.87593812958835
H          -0.84112310503516   -1.10162635950837   -1.45397831392479
H          -1.01925348532254   -0.83507465497203    0.17397936744632
