    19
        -40.92158993
S          -1.36505970750196    0.14929122979877    0.54084928882993
O          -0.44689523696203    1.22346142720475    0.19318537558607
O          -2.48612184431680   -0.00633203144816   -0.34546864022453
O          -0.63429010126674   -1.10827346306943    0.74543674680081
O          -1.94847603724266    0.55226709029004    1.95821938275708
H          -2.77269034188258    0.07876592963766    2.01460655025583
O           1.10588709511083    0.29304601375905   -1.76683803298737
H           0.55552959006563    0.91884887330066   -1.25587294614277
H           0.44447000647964   -0.32884963007171   -2.15296178411936
O          -0.97172789903786   -1.30178723758201   -2.11236876123913
H          -1.65187612784310   -0.81306424383182   -1.60905510743310
H          -0.87606297628938   -2.14279093047441   -1.65927783193676
O           1.73635908188808    1.34639326523423    1.63332918046030
H           0.83795204418605    1.44385929095118    1.23826332225286
H           2.23601846783219    2.12364301253982    1.37534324592847
O           1.79495110285584   -0.85497498621758    0.33297067842671
H           1.98617216218764   -0.05883536724298    0.93351159408501
H           0.79501335348320   -1.08691501427423    0.57646258816057
H           1.66084734825469   -0.42775322849999   -0.64033483949104
