    19
        -40.92161556
S           0.65318151847138    0.68328405819755    0.49255541430377
O           0.16210964930280    0.81386445283509   -0.94904861710106
O          -0.40984316741851    1.08940442252790    1.38267641538419
O           1.18146971722073   -0.62435359608239    0.73848546343699
O           1.79681511383042    1.71690529459117    0.55477536338684
H           1.34248775447341    2.58890599598957    0.43437001814962
O           1.09038010442539   -2.60970537772211   -1.08662022819227
H           1.39882323539653   -3.44297309723643   -0.72701995896472
H           1.29376686040441   -1.92388493277891   -0.42439549510158
O          -1.62275637714935   -1.31416080823536    1.14625053772884
H          -1.39094704453957   -0.40023302254352    1.38242197638149
H          -0.93611650534491   -1.85920148985695    1.53870571747646
O          -0.06134003467006    3.50641834687904    0.23798412271889
H          -0.39941043240583    3.36385262721712   -0.65067530020169
H          -0.53502303520852    2.88728133994690    0.81655149847645
O          -1.15674208974001   -1.21270034604049   -1.47659478945248
H          -1.54003600506898   -1.35851648730367   -0.57972185930551
H          -0.43125111611559   -0.03432410782628   -1.26322125035819
H          -0.43556814610484   -1.86986327250348   -1.56747902853131
