    19
        -40.92079005
S           1.30466952123211    0.36821970720689   -0.60740335862211
O           0.18717762219459    1.21751820989952   -1.02377762848664
O           2.13278938619474    0.99410285912626    0.39100618939067
O           0.84268556364090   -0.96649068288173   -0.25193172735368
O           2.20094043745265    0.16319472939496   -1.89569920654195
H           2.61585563426854    1.01196752837276   -2.01339523272010
O           0.38409185156466    1.52540382052332    2.30072318162498
H           1.05874552546512    1.42940748470424    1.59407490519883
H           0.86972097316986    1.65121936947057    3.11818791608113
O          -1.03382681414314   -0.58430448792800    1.60262953153077
H          -0.66567637464990    0.21856685544263    2.04071580105919
H          -0.27210338890099   -0.95043895981980    1.10910186901323
O          -1.13951649576345   -1.89590150797688   -1.69637480406849
H          -1.34584266579734   -2.78035200333373   -1.38719455828436
H          -0.27554240152041   -1.65014970315114   -1.28887269288692
O          -2.02248418354332    0.21124137055232   -0.54286914429792
H          -1.90437475482407   -0.63028172200094   -1.09804672693884
H          -1.77582138941020   -0.09602842315742    0.44794060193749
H          -1.16148805672082    0.76310556513067   -0.79881490571124
