    19
        -40.91176146
S          -0.00373629331277    0.28389357296470   -0.42800374582097
O           0.46818124825303    1.52874532989981    0.11877457034407
O           0.85271528062898   -0.85984549052146    0.13436176999703
O          -1.39624530245727    0.01458034770423   -0.23267837390975
O           0.29872240737403    0.22905026284147   -1.94062771265227
H           1.13365684235113    0.75358179773785   -2.09214221416850
O           2.26440430768894    1.89412343750106   -1.79669104660964
H           2.17252170819437    2.71552090828306   -2.28647759144787
H           1.84462935637873    2.03009594979787   -0.92730661113969
O          -1.89814626046316   -0.60297532848688    2.35656515171878
H          -1.92571584161467   -0.32287783629679    1.42468535958394
H          -2.21757178922806   -1.50809063926259    2.37415909715845
O          -1.38980590729524   -2.31182132095260   -1.77467014724312
H          -1.57750201110415   -1.53168144127116   -1.24057257484709
H          -0.74450999036319   -2.03399462900463   -2.42698287101110
O           0.70024413379395   -0.10764208919601    2.53818036450545
H           0.75323812476633    0.83828730751309    2.36832263500557
H          -0.25498037439415   -0.30826818411583    2.68883023587206
H           0.91990035080257   -0.70068195513455    1.14227371467894
