    19
        -40.92174063
S          -0.65294408773247   -0.07592890610002    0.60756123363804
O          -1.02945034701839    0.18253060425805   -0.83955004252682
O          -0.18114402774662   -1.43559909139265    0.76495676154560
O           0.25445999916046    0.92823531986017    1.08006060500574
O          -1.99393342669830    0.07017585525762    1.35908238396001
H          -2.47989427723927   -0.78248736745788    1.21370068379826
O           1.34144232463204    2.77490409260910   -0.54876383755722
H           1.00546766202785    2.20737226552110    0.17071191052988
H           0.77195678290945    3.54555348706724   -0.57544074109322
O           2.25467432091667   -0.80262431240974   -0.23167706387871
H           1.47825164255446   -1.24067994822496    0.15417284745705
H           2.54170872114361   -0.15693422240187    0.41943254188400
O          -2.63777541332339   -2.40794277647466    0.93125434674211
H          -1.68039437755858   -2.40899844377861    0.74600529041276
H          -2.77389534091818   -2.96557856633256    1.70143854077194
O           1.04305558345700    0.63881039776788   -2.10430182872221
H           1.64680463719910    0.02613147503364   -1.62153868416300
H          -0.16548218077211    0.36898661470641   -1.47368608307341
H           1.25709179499705    1.53407351253080   -1.75341889470497
