    19
        -40.92120575
S           0.41816223709803    0.67556836602892    1.12590656932046
O           0.91672860306382    2.02109242318269    1.04836283115384
O          -1.02059020132396    0.57478074558913    0.87970890289653
O           1.15280571660078   -0.30444457203830    0.34234525611903
O           0.61503997912272    0.20157529390198    2.63872122277162
H           0.56490977649157    1.00707931110652    3.14463427571202
O          -0.11679711851323   -2.54921142177617    0.79930996459507
H           0.52853302916480   -1.81192096464806    0.69830071034935
H          -0.35140342781925   -2.57281487780392    1.72892265455263
O           0.28395649648263   -0.36671272421674   -2.18731881403054
H           0.15101979638935    0.60516595075973   -2.20438928685752
H           0.91042682516537   -0.49019049355134   -1.44925587369817
O           0.14961449962532    2.20309731797427   -1.50187086537669
H           0.57001188999274    2.97581048074385   -1.88512780485304
H           0.39296165993030    2.19995068284267   -0.55599795966061
O          -1.60418871376749   -1.17387398913009   -0.76942184374047
H          -0.89327852376483   -0.89457305579768   -1.51542318247135
H          -1.16150457076547   -1.92369646681194   -0.24926878004439
H          -1.50640792317240   -0.37668199634262   -0.08813795677932
