    19
        -40.92246920
S           0.13609345433054    1.03015929076349    0.25718810007414
O           0.45283293275014   -0.19657511924582    1.10833381197864
O           1.14973201033432    1.16936228688696   -0.76235406859102
O          -1.21028634442047    0.97559981096751   -0.22655207119615
O           0.26529618326824    2.18756386510397    1.27145031069017
H           1.22671971697292    2.19187157262433    1.50705743626007
O           0.09141424793581   -0.78939869950499   -2.28931530273765
H           0.61168039277610   -0.05676039800828   -1.91712119062768
H          -0.74806055818972   -0.40706867900209   -2.55684974486804
O           2.79564655868538    1.58969450607009    1.32430257938334
H           2.84317805186014    0.71756167861076    1.72589119642355
H           2.61583368435026    1.44926357770769    0.38039490737640
O          -2.80626820807682   -1.17518758991022    0.00472861374725
H          -2.37654987609689   -0.30975760737233   -0.13373983043486
H          -3.34975835497281   -1.08674407491745    0.78942614456036
O          -0.36012685154437   -2.19053090513760   -0.08838984725332
H           0.12510710312287   -1.13471786178822    0.63515629530163
H          -1.33603516775267   -2.05901151774184   -0.02445909040003
H          -0.12644898494096   -1.90532413620913   -1.00514825938500
