    19
        -40.91966058
S           1.14311629028770   -0.43351618211325    1.19907947594245
O           1.70612244789263    0.82700376934454    0.74042203875056
O          -0.02521534097984   -0.19888650908851    2.06174386194207
O           0.83864532674735   -1.34550409590953    0.12453717165725
O           2.22535363776580   -1.11928783036808    2.11377112842360
H           2.38167298163282   -0.46461503039143    2.78738412190744
O          -0.11056036512011    1.97403072430995   -0.65356239108930
H           0.66037583549013    1.58677174061846   -0.14532753113827
H          -0.07442294615238    2.92252864007624   -0.51638667483090
O          -1.64182879646975   -1.56156118682578   -0.97766608370757
H          -0.92531424920255   -1.99471775642617   -0.48557317749320
H          -1.16585301987163   -1.16003375608947   -1.74545350590440
O           0.22387212160065   -0.29181368824156   -2.34720898803242
H           0.17448668105870    0.64858782124076   -2.14076993916623
H           0.75975966175788   -0.68799915250608   -1.64048187825082
O          -1.82964940043313    0.43712872292313    0.50368599141046
H          -1.14692619557939    0.15413127412885    1.26875422822819
H          -1.31206582397290    1.13444363584803   -0.01259893637516
H          -1.88156883643714   -0.42669116050920   -0.13434892226796
