    19
        -40.91271900
S           0.15831991481530   -0.13292784403326   -0.49775594648642
O          -0.20052667848201   -0.32151810539172    0.88923345776440
O           1.13260042664635   -1.24490943518141   -0.93323155708859
O          -0.93350764637825   -0.04848368707669   -1.41150797118732
O           1.02277301720801    1.14035565535842   -0.59642118826321
H           1.53643438683927    1.18979649945955    0.28732265505475
O           0.40274102462016    3.47141431512818    1.13962334245250
H           0.24669268585798    3.02019219152663    0.30312399114095
H           0.77048149059816    4.33269509969992    0.93086238181675
O          -2.08118797700877   -2.16059678926693    0.26373074620640
H          -1.44311690020582   -1.57303050596444    0.70351543253763
H          -2.75633784561205   -1.58000438465352   -0.09629950547788
O           1.82793377242301    1.22230764736761    1.80016375749006
H           1.15772568383362    0.54374218682225    1.97706727698574
H           1.39987284300602    2.07913406719690    1.97417588181776
O          -0.60718921801925   -2.85541876327212   -1.84943188975624
H          -1.00985452391719   -2.26239164527892   -2.49145066376827
H           0.57337203689602   -1.99363543626924   -1.33325934343882
H          -1.19722648314449   -2.82672105615421   -1.05946086781782
