    19
        -40.92343538
S           1.57721785298053   -0.59276602059846    0.08074925513465
O           1.18015954192191   -1.03714595889293    1.41746032578783
O           1.05883807401127   -1.46254108808118   -0.95365708745960
O           1.24014099161276    0.80422405149408   -0.14294309192911
O           3.14948603801504   -0.68064215657412    0.03272326823883
H           3.31124522466617   -1.60882993990268    0.16991690448817
O          -1.53652554478573   -1.19031273851092   -0.76547834535598
H          -1.56861251922753   -0.32168508922971   -1.21819539154754
H          -0.61417111943339   -1.50301263195581   -0.92457986476861
O          -0.82186336836158    1.89729203033115    1.15202590872560
H          -1.31084186778655    2.17371951639470    0.36905941674193
H           0.08029252559032    1.69232797437702    0.82932112144539
O          -0.86340510898370    1.23534038940567   -1.70366845670901
H          -0.65995364890678    1.32160473851152   -2.63594689468991
H          -0.00331925737673    1.10961403970229   -1.24515956813942
O          -1.24897390579409   -0.56580833354237    1.62996842073481
H          -0.24018867537961   -0.83603550769014    1.68530504211226
H          -1.21418818140811    0.45997302349710    1.57443030095162
H          -1.51533705133203   -0.89531628874680    0.64866870621936
