    19
        -40.91743292
S          -0.30846181586808    0.12066608447817   -1.31765827804617
O           0.60359288801429   -0.88816388628131   -0.83882246482234
O          -1.44471980170713   -0.34663900028106   -2.03921125664257
O          -0.78069285479881    0.94555202622151   -0.07408413776134
O           0.45409878190954    1.16978190775035   -2.12644024737389
H           1.35166003565907    1.27172333203629   -1.65364614127602
O          -2.50298392452485   -1.72324652705556    0.06480801315620
H          -2.22343714750981   -1.29728210363819   -0.76330380719961
H          -3.33536237045737   -2.16016921685983   -0.12541464421179
O           2.55487827513121    1.04214788471510   -0.69933669656800
H           2.54029700876153    0.07836775560887   -0.73673579606041
H           2.28681713379861    1.27015480300378    0.21688533701675
O           1.41060161537335    1.36470304039621    1.74367467092799
H           1.02338043607057    0.54468235948311    2.07098138664882
H           0.67657582229892    1.95936637305509    1.56751728005825
O          -0.42513899394895   -0.96023156401614    1.62050554658558
H          -1.27212066307168   -1.40935706965985    1.46591242082067
H           0.15629602545059   -1.29867435608882    0.91681519705258
H          -0.76528045056691    0.31661816711978    0.70755361769339
