    19
        -40.92343664
S           1.32098366697192   -0.71934095687359   -0.76355164810247
O           0.49395834467611   -1.89370369604280   -0.58532531566218
O           0.89575186442438    0.07821197752455   -1.91489272859667
O           1.41429117135964    0.08628361574976    0.44368536922227
O           2.78415928869443   -1.20924803003976   -1.08157676848444
H           2.66660953343582   -1.71411589793039   -1.88023047932663
O          -0.12225173956740    2.25081737842719    0.71861418039402
H           0.64965776865471    1.65420476097173    0.62726878712404
H          -0.55331753570947    1.97881301793768    1.53632235704183
O          -0.55439827858306   -0.24594673849985    2.19334860920357
H          -0.39608092097974   -0.92373208343222    2.85182250239700
H           0.25409400472940   -0.20989138213370    1.63582867978565
O          -1.87480953558893   -0.92249396199794   -0.04608236285447
H          -1.10525976209901   -1.47186070543211   -0.32871589316061
H          -1.66885860926361   -0.69624197044701    0.88504640882031
O          -1.25208953266005    1.15129010488032   -1.27965741058032
H          -0.37347321904219    0.76359158394040   -1.69376614687121
H          -1.67080212818384    0.29285963525405   -0.79932086561123
H          -0.90816437135183    1.75050334829837   -0.51881727483024
