    19
        -40.91955063
S          -0.45685136454938   -0.77068261549409   -0.74808283360550
O           0.89619417252119   -1.27417154581026   -0.21170463402812
O          -1.29442336889952   -0.42455029846033    0.37712545614992
O          -0.27020136256239    0.25908705107002   -1.71529922897207
O          -1.01812269703427   -2.03727574075362   -1.42488015294560
H          -1.15775391468596   -2.66356255202536   -0.67033984416355
O          -1.19785838165335    2.19200925307487    1.10384472159161
H          -2.05938148751461    2.56635292314190    0.91082431235009
H          -1.27174651444503    1.23520829692896    0.93878332362735
O           0.86137109103749    2.49133743664666   -0.62382134976893
H           0.19288983546817    2.60938347659985    0.08030143722971
H           0.43590911644439    1.90664592124762   -1.27095479289760
O          -1.13166043556476   -3.03861854578195    0.96852708900523
H          -0.22196316202996   -3.14959898880971    1.25850975579412
H          -1.37462485359652   -2.11937335713971    1.16627485812950
O           2.43899499498642    0.64659287784915    0.24266220307025
H           1.55529750384941   -0.49539432816875    0.00752394535470
H           3.18223378027717    0.61405440296169   -0.36434013497408
H           1.89169704811964    1.45255632283725   -0.02495413101611
