    19
        -40.91791107
S           0.15635417057541   -1.07659061091251   -0.15666239959117
O          -0.66463036819625    0.03276217454628   -0.90290791789800
O           0.89500106887071   -0.41127826063994    0.88518349260754
O          -0.73444206096593   -2.11109598676114    0.25955430244263
O           1.09772622528012   -1.58077740445278   -1.24335235200142
H           1.92783055998208   -0.97287403878798   -1.22247119197145
O          -2.64163036193075   -1.13015880755327    1.87945792210007
H          -1.96909167741239   -1.64353255284506    1.39161980956060
H          -3.49491722097311   -1.44286917983815    1.57262867826253
O           1.14815957435188    1.96567334880192   -1.74124803136347
H           0.41418961465274    1.33560755178484   -1.68397152529375
H           0.84446938001791    2.78413401773195   -1.34366446096321
O           2.91253645452037    0.12511265465942   -0.85260697623125
H           2.62611747326912    0.14970641582695    0.07231597472607
H           2.51371646331728    0.90965961334261   -1.27968180130849
O          -1.39850113271405    1.12362459959651    1.24746441908573
H          -1.08048043876946    0.57353613026322   -0.13743587079522
H          -2.00998192652032    0.43720919280504    1.60309334217155
H          -0.54242579760167    0.93215115260608    1.65268457617879
