    19
        -40.92217273
S           0.49501724734263   -1.04920928597063    0.74833801581212
O          -0.61703972327999   -1.09115547901540   -0.18465902241152
O           1.59951563627287   -1.91218395324618    0.44208551832404
O           0.90181414911619    0.33615007157344    1.01727584600877
O          -0.12576516329890   -1.56690804620103    2.12886298576375
H           0.58200374085890   -2.04885820003906    2.54636800582534
O           2.13820710024549   -0.11717230843396   -1.48926569388491
H           2.03301610408226   -0.89513337802580   -0.91350910872682
H           2.63054511762143    0.52171133157227   -0.96832336766401
O          -0.31992432789110    0.65394090293458   -2.20018547038391
H           0.64744216373961    0.48125823851531   -2.20040065305578
H          -0.68677915127050   -0.15684623700493   -1.80572661591359
O          -2.42692500882732    0.43604603438299    0.92227470963972
H          -1.90774989289695   -0.29460995288728    0.51417866973906
H          -2.40688930061140    0.27937235638321    1.86837291377669
O          -0.61922282708328    1.94580266832255   -0.08339316071553
H           0.10094840683977    1.37032748694379    0.43278347208025
H          -0.53682253594908    1.54102625323957   -1.06938906696513
H          -1.48139173501506    1.56644148697161    0.29431202275463
