    19
        -40.91373472
S           0.52507630012967   -1.43497592832843   -0.67048451895547
O           0.94051195755383   -2.22198052561681    0.56289584037921
O          -0.89590880264134   -1.21086255668466   -0.67938952192736
O           1.34405868903483   -0.28038310679333   -0.84235146281392
O           0.84794833898836   -2.43880167930112   -1.83424262291045
H           0.23752109102231   -3.17228577297222   -1.77770423540137
O          -0.92668085320211    0.35070025007692    1.63198452234922
H          -1.16113841300086   -0.23240744549283    0.89764521693157
H          -0.98083350769472    1.26716451736123    1.27951217029509
O          -0.66956969034413    1.25058424938702   -1.91308507899299
H           0.26982672651833    1.05019239086264   -1.81069942930537
H          -1.11394153214849    0.43451607741233   -1.64667278814301
O          -1.04442305757445    2.69454352175172    0.32839778828176
H          -0.90400849140955    2.30587328477709   -0.56308741344784
H          -1.86219087654289    3.19230171906652    0.28397204221322
O           1.53919688738523   -0.31683100702349    2.02087552842202
H           1.99406282932274    0.24531337103100    1.38384924325669
H           0.59561416941657    0.02387586913055    2.06580904651774
H           1.26487823448583   -1.50653721844143    1.28277566292001
