    19
        -40.91440004
S          -0.41639928064011   -0.82975737541621    1.40446634978245
O          -1.09261499480460   -1.05723555635091    0.11309917315777
O           0.62047750534988   -1.78061643852626    1.67781048530485
O          -0.03205252296643    0.57115714889267    1.51802375477197
O          -1.54088672743128   -1.04092819378177    2.50698856800160
H          -1.50832238845564   -1.96285784046559    2.74845596876211
O          -0.10272483258710    1.73431848098208   -2.16526607607742
H          -0.50124972469423    1.72716630084155   -3.03780674416910
H           0.39726703657007    0.85882714752440   -2.06775947705793
O           0.90128407587078   -0.58262456019366   -1.70737801854874
H           0.19628227156810   -0.99943116013602   -1.18530683056266
H           1.65698603287532   -0.49328846623742   -1.08584170494776
O           2.47117256901183   -0.27315382692553    0.43708842031353
H           2.17970432776577    0.54082738627053    0.85792540006511
H           2.03963319126602   -0.98216805952235    0.94341867541091
O          -1.61743765644189    1.32375160464888   -0.22372304305959
H          -1.64058327838553    0.28373480115840   -0.25081117404815
H          -0.98458835147970    1.35699652407882    0.58325237624391
H          -1.02594724240853    1.60528208314069   -1.06663609334955
