    19
        -40.92267713
S          -1.02895136093611    0.22572905638547   -0.15549075804283
O          -1.03007095706884    0.98821035663285    1.08405863808512
O          -0.32502025301896    0.89193755269716   -1.22752308871272
O          -0.45600854720826   -1.12216436035311    0.08562690663544
O          -2.49749513128019   -0.00341316556796   -0.60937811091464
H          -2.90832389011081   -0.42452746035537    0.17808701779328
O           1.53743908964938    1.51249096007396    1.03459802308304
H           1.60524978743690    2.14581430292663    0.31469406451439
H           0.57024561368150    1.41397791574470    1.20515581657491
O           1.85067873531047   -0.06270130074048   -2.30549244250045
H           1.01401509477519    0.39889092426886   -2.05016519396122
H           1.61365808786517   -0.69329307346720   -2.98824821902632
O          -2.70202927243062   -0.99837917864840    1.80923537321819
H          -2.19196276563579   -0.19442739301128    1.99660160807762
H          -2.04763187104577   -1.68827987587023    1.65770608518148
O           1.97940077395931   -0.81457965134300    0.11754379509688
H           0.92530479180813   -1.07638647824678    0.15049346202370
H           2.11933741292366   -0.60644536948745   -0.87643453680672
H           1.97216465138016    0.10754623826973    0.57893154953578
