    19
        -40.92343655
S           0.57636256957591    1.54145279497300    0.37131322181278
O           1.13143466692696    1.40607822416314   -0.95844138171903
O          -0.82456047005161    1.15590595604161    0.43348256733195
O           1.37723757656796    0.83415925866515    1.37182760517790
O           0.63203651709786    3.06716549331264    0.75993558974738
H           1.56375362875038    3.25894581859088    0.72027185834758
O          -1.49644855310779   -1.27029124269864    1.31946540832583
H          -1.97374863997236   -1.54867086721951    0.53003392961047
H          -1.39752199292951   -0.29978640883332    1.22778089067702
O          -1.65048132433294   -0.47007918478380   -1.49584038526851
H          -1.99599127593532   -0.02865196072161   -2.27287183966314
H          -1.41094621669172    0.23973173946828   -0.85984154433982
O           1.00705900126100   -1.59166689138292    0.99182216466713
H           0.00565760013961   -1.63427808180849    1.21927351959730
H           1.27192661019866   -0.61636554802302    1.26230061945341
O           0.94718708432012   -1.15517171251401   -1.46126819476809
H           1.19448853081685   -0.20058382724063   -1.42441134360222
H           1.05493680325474   -1.54882025192253   -0.07482753813099
H          -0.01238213170325   -1.13907332706218   -1.66000514709400
