    19
        -40.91285581
S           1.62921863813152   -0.38415940949559   -0.35527575372024
O           1.70182478816949    0.31047999991319   -1.60994772505205
O           1.62046358371360    0.51656267915141    0.80514765181324
O           0.54994928221187   -1.35974785905802   -0.25239854007715
O           2.95838805663111   -1.24239642871323   -0.22575100515744
H           3.65963366439295   -0.67124853652215   -0.52667996625562
O          -2.14241334263726    0.32509966537291    1.74529344920294
H          -2.92515855888234   -0.14862155644251    2.03329918222272
H          -2.11108256257417    0.24516728064030    0.73939866541464
O          -1.83107584493671   -0.12886967579435   -0.77119681209601
H          -1.51984279304931    0.66980838352455   -1.24738139493664
H          -1.05767511127820   -0.71750914336718   -0.75043835942385
O          -0.47285126059167    1.80825086537744   -2.03195322861841
H           0.38213560755877    1.35792077712821   -1.88051454618736
H          -0.53815051366438    1.94257499188245   -2.97935501147698
O           0.06835040203775   -0.78803282931007    2.13912174645465
H          -0.86630713209506   -0.29437655529145    2.09156225270712
H           0.10423275061297   -1.36001226996908    1.31088195711431
H           0.79036035625070   -0.08089037902885    1.76618743807569
