    19
        -40.92022152
S           0.63375415021373    0.64239199971247    0.21116030140576
O          -0.27103912916212    0.28569663440216    1.27342678324688
O           2.09038855651122    0.55839603723247    0.66659503510424
O           0.46324130177604   -0.15639538395450   -0.98023060256462
O           0.46484752627598    2.13004798917000   -0.11571445830999
H          -0.51812870986592    2.36598409955583    0.05961151917604
O          -2.07974912068923    0.42421844170756   -1.60989504590698
H          -1.17482857654154    0.09422302187585   -1.44965813218559
H          -2.11112395278123    0.69413039555312   -2.53020547969450
O           0.28244700244155   -2.34929019647578    1.26919954494220
H          -0.44825608097294   -2.75221812673660    0.79521003067742
H           0.01532934974861   -1.42947745386352    1.44710130037905
O          -2.02014860781805    2.25613271246085    0.33800505205523
H          -2.27213873387882    1.64844303908574   -0.39352573751223
H          -1.97619523949724    1.70345983815703    1.12706431685247
O           2.52937486426934   -1.81885333330741   -0.07692200099994
H           2.11944352775823   -1.70299771104545   -0.94148777386402
H           2.43998991298678   -0.37434289536302    0.41903755565314
H           1.83279193931893   -2.21954910817621    0.49122779150560
