    19
        -40.92453852
S           0.01170108051308    0.07795812166667   -1.52181193552297
O          -1.17894587998117   -0.67311109760885   -1.14114642854738
O          -0.05151624828460    1.44272011821711   -1.01014785101690
O           1.23696339891045   -0.59789204727636   -1.15019517575031
O           0.01517822063601    0.17570866315441   -3.09835514317540
H          -0.79952875308171    0.61777335754534   -3.31929645741921
O           1.93840470818818    0.93017520796638    0.82936188779606
H           1.56596518237007    1.75306715966124    0.49077005315273
H           1.88804787402000    0.31843397371130    0.05433130620757
O          -1.71994019788679    1.04919424948983    0.93360141153055
H          -2.25243064090299    0.36517549560751    0.51088798481780
H          -1.14189527317052    1.38038779153341    0.19974488398597
O          -0.06743467267906   -2.18742787370812    0.65678801447101
H           0.79248763229581   -2.29627617392727    0.23425854733515
H          -0.61848482853530   -1.75950104257504   -0.04531906655554
O           0.10711839244692   -0.17425510823678    2.16343936924945
H           0.93842424289426    0.30572060306419    1.74604923957346
H          -0.71190009812636    0.36544772347781    1.80155044893732
H           0.04778587037097   -1.09329911176325    1.66548890093026
