    19
        -40.92279182
S          -0.73044548981729   -0.70633246215905    0.22887161496354
O          -0.48200174361582   -1.74172001444816    1.18184088093330
O           0.38676750531891   -0.79774798335060   -0.83953793312809
O          -2.01159564343412   -0.67070149473962   -0.40284849196075
O          -0.50887346800149    0.68070131900921    0.88096880185773
H           0.37454437501556    0.66916439814480    1.38793411748633
O           2.17444760473868   -1.90072343916382    1.13253186767541
H           2.34465116584218   -1.85934462487874    0.18814484335672
H           1.21849515426002   -2.08455260664007    1.21685031564945
O          -2.19071848754695    1.88537245402913   -1.12411425403094
H          -1.86131507799129    2.32380994737070   -0.33555965644167
H          -2.37678056597259    0.96564946406778   -0.85179653900554
O           1.69974390000607    0.48469449463732    2.12507560525975
H           1.53723954244432    0.34984434244925    3.06168611420579
H           2.04446257374067   -0.38060449503009    1.77836732678322
O          -0.22754120829974    0.93905097041490   -2.59188035756947
H          -0.64764644695827    0.51141927636502   -3.34189225436251
H          -0.94564500291990    1.44330245823719   -2.12546109949022
H           0.20221132318418   -0.11128202434106   -1.56918087202055
