    19
        -40.91836653
S          -0.39913664522453   -1.54069257198008    1.16450762949601
O           0.01954010115426   -2.28738625869992   -0.00753980444523
O           0.62455430156903   -0.66344813046233    1.68378270582937
O          -1.66429288377570   -0.83222784615427    0.91408936513359
O          -0.71548863142354   -2.59622595840981    2.29318429773055
H          -1.29495615581987   -3.20642991345196    1.84724988261784
O          -0.19325086810367    2.69131842985542   -0.25822690548045
H           0.61039819623883    2.17072100184204   -0.03590161067758
H           0.05741885488332    3.32220916659879   -0.93565158009470
O           1.82509781682531    0.96654902940889    0.09965079484689
H           2.69209336429916    1.14353818394825    0.46854447672855
H           1.38553182144144    0.34323728632633    0.74325671314887
O          -1.53871051434844    0.64144546419412   -1.05324385950039
H          -1.69341035840590    0.01980643879495   -0.19257736037296
H          -1.16285002390494    1.51686078818137   -0.70733239971603
O           0.53703269683710   -0.51936213271110   -1.83549988407073
H          -0.72349159428119    0.16682207810764   -1.53025983666032
H           1.22561816537009   -0.00783982064644   -1.37897593489295
H           0.40830236668666   -1.32889523475238   -1.27905669960836
