    19
        -40.91974965
S          -0.47641063609836   -0.54967419595479   -0.42497998562861
O          -1.23989034350808   -0.28400018728417   -1.72425701634993
O           0.93948834893232   -0.49053157427290   -0.66176687032944
O          -0.92038042480406    0.36466130003316    0.60708833755895
O          -0.93205513994997   -1.96963150119828   -0.07883938103266
H          -0.51165570923804   -2.29384618103258    0.79312722471856
O           1.29993659318845   -0.18763431032506    2.06542586552291
H           1.79224236006024   -0.25020363586599    1.23764891086998
H           0.48166784619493    0.27202487424156    1.82023486417187
O           0.13680028537429   -2.54482748294314    2.15920237100289
H           0.69524450603187   -1.73107122264723    2.26649191040703
H          -0.51808106009910   -2.52606663620320    2.86132110222009
O          -0.35698174144424    2.68770851239391   -0.64284270020543
H          -1.13353000258295    3.25064491713392   -0.66215452582679
H          -0.58015416853396    1.92791714971617   -0.07469594679681
O           0.47344300158530    1.25746564653107   -2.75165075258884
H           1.20581484018529    0.76675655358834   -2.35717254543336
H          -0.63687071591907    0.31080025206832   -2.30568883423601
H           0.28137216069527    1.98950772213587   -2.12649202802414
