    19
        -40.91793140
S          -1.49395851070398    0.41580323627224   -0.82683732188369
O          -1.51501126267574    0.29602491553941    0.63998671794851
O          -1.53946545621764    1.79492170230985   -1.25534387415480
O          -0.39404806347915   -0.33530231264553   -1.39572885367209
O          -2.82041571640562   -0.28159670317581   -1.33104816787113
H          -3.51617608719104    0.32059449073766   -1.08163427548007
O           1.05055225148526    1.97359521611180   -0.90569067522041
H           1.22217336147132    1.17057795746808   -1.41156475215207
H           0.10996225066939    2.17816321246293   -1.11067426602032
O           0.48122328406634   -2.41582334752215   -0.08155031212769
H           0.05673908160696   -1.67129442657992   -0.57079210496779
H           0.92161284928144   -2.94767464643574   -0.74717121739446
O           1.86887435604094   -1.09106421431023    1.69476043661938
H           1.38934777311941   -1.64301589929345    1.01785513602714
H           1.69023743970739   -1.49791313100523    2.54493725951417
O           0.65341254915360    1.12477903862929    1.45399866656090
H           0.95620971144993    1.56144511971861    0.57042999212682
H          -0.33290056656924    0.78452718384572    1.20886055828142
H           1.21163076508943    0.26325260777171    1.58720705351976
