    19
        -40.91188247
S          -0.79064705817952    1.42322578493106   -0.62784935148042
O          -1.54722411662985    0.22421571507298   -0.04860952217232
O          -0.76237552297227    2.48124127610032    0.32824127908448
O           0.45369289664902    1.00093807887289   -1.19290520828358
O          -1.71445103479510    1.84278126871497   -1.82898330066463
H          -2.42076687120827    2.38821004470062   -1.48743222026589
O           1.61343470267985    0.07686805592565    1.17719488468129
H           1.71310617229454   -0.87924296933139    0.96447235104701
H           1.48032222975876    0.51853417049850    0.32774998091515
O          -0.05205747340275   -1.62672110682824   -1.69546588916285
H           0.22822933055746   -0.69686443171483   -1.71534842429894
H          -0.93044119560803   -1.62134765362723   -1.30587666576169
O           1.67170793423152   -2.42829853462553    0.22261452723587
H           2.47920735916068   -2.74735518152465   -0.18314675526125
H           1.03655281803233   -2.27254528640361   -0.50924583513834
O          -0.69731164562859    0.44872583912766    2.25106333563897
H          -1.28143535059151    0.21653752183037    0.99556323407129
H           0.26096167516824    0.24068592102511    2.01388201714134
H          -0.74050485951292    1.41041145726003    2.31408155266238
