    19
        -40.92174074
S          -0.65240173693925    0.60948901800780   -0.08022211700621
O           0.42224733896216    1.57947291012652   -0.08529846095988
O          -0.45232729237669   -0.39804785193014   -1.19737607637151
O          -0.84626780452516   -0.05896692355383    1.17300038972593
O          -1.96359082922712    1.32455862146522   -0.47222490362849
H          -1.71484017252978    1.97758975748329   -1.17632725796076
O          -0.53851935066339   -2.71769456530847    1.45773593093166
H          -1.37792406618452   -3.15173946959974    1.29661372517979
H          -0.72699843632383   -1.76150612539319    1.51037307339782
O          -0.71749987609838    3.02291200870421   -1.98980188049320
H           0.00725591579294    2.66113477874203   -1.44686952845736
H          -0.79648307527471    3.95374959252252   -1.76628831361365
O           2.10582448757771   -0.14151002054990    1.15230996003800
H           1.63362136792374   -0.27589049337700    1.97822253896848
H           1.68338416658586    0.62290743601769    0.72702395412268
O           1.20604264480006   -2.06623523485053   -0.44125867921748
H           1.78086048660627   -1.46920691755955    0.09351605685937
H           0.66161389458263   -2.55296422949471    0.21977325148439
H           0.28600233698114   -1.15805230152749   -0.95290166286663
