    19
        -40.92120590
S          -1.04236397916603   -0.54524455807671    0.72014632165290
O          -0.51883140273578   -1.30625872719558   -0.41474152187316
O          -0.81796815454192   -1.18593973282476    1.98664072911767
O          -0.63466215918518    0.84844007100306    0.64887607390533
O          -2.62386787565014   -0.50616376927125    0.49936702189745
H          -2.94217747890761   -1.28349482730096    0.94847090645491
O           1.82420265016684   -1.07903391528276    1.62811017938743
H           0.86477024626266   -1.19172871629740    1.77275342834231
H           2.24638289076701   -1.26187071858357    2.47012081588720
O           1.96474022633939    1.06266290521008    0.05261934015764
H           2.19263240831507    0.27928210484976    0.59777840179061
H           1.09987799127820    1.33713611917862    0.41188362231373
O          -1.21902879141920    1.55250045926613   -1.80496300480345
H          -1.12340155000588    1.45003359508982   -0.82993267528174
H          -2.06587086886828    1.16402252641377   -2.03238723853807
O           0.85966548446014    0.06112865598229   -1.94755917615130
H           1.47480608035887    0.51591892508996   -1.20207018414197
H           0.33511438995675   -0.64786322405051   -1.37248391923028
H           0.12597989265577    0.73647283663592   -2.13262914103204
