    19
        -40.92217269
S          -1.29552752255123   -0.24691557983282   -0.40815704936741
O          -0.87724876743386    0.37531040897160    0.83572818949249
O          -2.12178307078588    0.55802678152173   -1.26148063563590
O          -0.14959924870059   -0.84187159788431   -1.10766937510208
O          -2.18511283863808   -1.49437054032882    0.05188997114776
H          -2.86170477240912   -1.56656035090551   -0.61485162566920
O           0.37614376627975   -1.53333370815507    2.10854240559990
H          -0.09983171612724   -2.35166221611240    1.95463080928668
H          -0.22373415890569   -0.80983295600872    1.81433418125048
O           1.40889251775879    1.74945022618806    0.56186244035974
H           1.13434262953746    2.02139336233023   -0.34173236151094
H           0.56072829238409    1.55786936814380    0.99986134920886
O           0.15517225817707    1.88893479610953   -1.79348025781499
H          -0.75628280310473    1.58134373345150   -1.64318925638124
H           0.50901284861098    1.31534386594864   -2.47736301980198
O           1.91294729781738   -0.67601193061031    0.24786520286096
H           1.86810997226497    0.38011234637942    0.41254341692668
H           1.53255265887513   -1.09795891878665    1.08880147783952
H           1.11292264704235   -0.80926708043479   -0.42813588274626
