    19
        -40.91833709
S          -0.59823506604075   -0.72987770423887   -0.33939660597371
O           0.93338715997711   -0.43549585024262   -0.16809920698227
O          -1.30396586584809    0.41651410595274    0.16428998464315
O          -0.85128745028539   -1.09300832402421   -1.69679425036531
O          -0.80109212609307   -1.93133212915892    0.58044622731255
H          -1.00859623346029   -1.54877345575312    1.51467084057282
O          -0.21494592123866    0.88452717378157   -3.39247550693935
H           0.30916097463408    0.51267657477602   -4.10463117141631
H          -0.58606878802914    0.12730083060293   -2.89926855906489
O          -1.20320620956978   -0.61497775081576    2.68827437536172
H          -1.53153551036225    0.11564328796698    2.14459369209403
H          -0.26996880753813   -0.39933361173434    2.89942573193248
O           1.45083464220012   -0.24661805810364    2.55287994684898
H           1.44436581599384   -0.30761198408047    1.58410343232955
H           2.08358268232473   -0.89404781225981    2.86964893700442
O           0.73401651364196    1.88081882340437   -1.12811089484094
H           1.03422347920434    0.51343064211205   -0.55228327011344
H           0.46837874797913    1.68900596691442   -2.05917355311234
H          -0.08904804749363    2.06115925490197   -0.65810014928801
