    19
        -40.92453853
S          -0.73256142996066   -1.10743453069624    0.74840676224232
O           0.69122631744659   -1.41628828629807    0.81430237928989
O          -1.02133810379621    0.15068228592818    1.42822450211046
O          -1.24496808979457   -1.13730274214292   -0.60537345472992
O          -1.49192778728337   -2.24433700801878    1.53928441655272
H          -1.13684907160418   -2.20893536114059    2.42277265031903
O           0.97061382424135    1.54592350392673   -1.18014110255894
H           1.22505486637232    1.53587125818530   -0.16606356137935
H          -0.07350672823905    1.61749348563063   -1.18437549592422
O           1.33807269596467    1.21399856084323    1.29000062594510
H           1.85122450856794    0.40133540701494    1.37002835116702
H           0.41170683536808    0.92462655652983    1.49109003009925
O          -1.53780256480259    1.41796009808071   -0.96662427792086
H          -1.74259491842207    1.65143239432443   -0.05337684228258
H          -1.59387074160547    0.43092057194335   -0.97041118187594
O           1.26625341968979   -0.90875424045405   -1.67036310774460
H           1.17559546613380    0.57174846990636   -1.50443655015438
H           1.20200347990535   -1.22303220930540   -0.73401556711846
H           0.44366800932462   -1.21590823530322   -2.06892858642897
