    19
        -40.92052666
S          -0.27735998534635   -0.57358417279704   -0.54503706385841
O           1.08624576629866   -0.10640894383662   -0.51819984649527
O          -0.33250601500181   -2.09561041247161   -0.38600610747913
O          -1.12036193898025    0.03707054849729    0.45246761680690
O          -0.85416590790278   -0.35927876928722   -1.94746452412551
H          -0.42434441639554    0.49772377601866   -2.31713910167225
O          -1.06186541590456    2.61626682764729   -0.31046246378263
H          -1.96776073858881    2.92768025948945   -0.36529473511716
H          -1.09732665636503    1.73803707035915    0.11352489994028
O           1.87950073430905   -0.92445200062076    1.91876250762191
H           2.70643145982338   -1.40003021420455    1.81588186332187
H           1.69217755127808   -0.50713942832933    1.05677098437389
O           0.34368750292120    1.81128876069079   -2.42650680531155
H          -0.13579921636142    2.32972471655794   -1.74064226082044
H           1.16520882399632    1.52961063226354   -2.00712838372351
O          -0.49271660273815   -2.11947777057306    2.13362073582702
H          -1.08102621216365   -1.35610198034991    2.17143182623437
H          -0.43957859066046   -2.28496137476733    0.61838067770724
H           0.41155988777533   -1.76035753428017    2.28304018058194
