    19
        -40.91893370
S          -0.24746281890394   -1.23364749418145    1.19933984611952
O           0.27401537079835    0.08426230440337    1.59286879343902
O          -1.67164374529323   -1.33328918420352    1.39347675843565
O           0.22251038453510   -1.60687263576853   -0.12026747586801
O           0.41630784126855   -2.26782758608162    2.20476482174617
H          -0.18012678663365   -2.25911444105444    2.94730361591638
O           2.00702829914840   -0.35062248045660   -1.51544834780136
H           1.33301729899881   -0.92545722717789   -1.06847323508391
H           2.85815903979083   -0.76543570383955   -1.36385305626545
O          -0.96318545027975    2.30364465033892   -0.96914766163192
H          -1.48042209521538    2.81535435444186   -0.34392658849708
H          -1.40476196600513    1.41444143270874   -1.02982489202156
O          -1.97816928038279   -0.11601389557092   -0.92872236692178
H          -1.41698013405360   -0.73237075750222   -1.40879406183454
H          -2.06015270414745   -0.51141516826955   -0.03730318634881
O           1.28846178000485    1.59926927864326   -0.05807545866134
H           1.67295891242135    0.92800577596432   -0.73062699998072
H           0.42659374251916    1.98633663248806   -0.48246990234920
H           0.90385232141547    0.97075214512549    0.71917938755082
