    19
        -40.91923797
S           0.27771319920140   -0.83645545905143   -0.40870635430630
O           0.94162529974748   -0.53388798970816    0.83612735558125
O          -0.72407432706091    0.32717227090571   -0.71258531677065
O           1.11776984436575   -1.01923571862729   -1.54364122408589
O          -0.65782943688406   -2.02606431912562   -0.20359609565910
H          -0.95256991086081   -1.99389208325090    0.78363238508673
O          -2.54826589345446    0.53668613796708    1.36146539527901
H          -3.43593721514540    0.47654695966843    1.00304317313474
H          -1.94704480508389    0.63962225740316    0.60722689081014
O           2.61374092093624    1.25735186129088   -0.28371792952905
H           3.31032052634875    0.70034759625177   -0.63916147802597
H           2.08487773117954    0.67939802451176    0.29486120671526
O          -1.16871156106554   -1.59193091903581    2.22507844830351
H          -1.78685473717954   -0.83428872372623    2.13474807107817
H          -0.29120267735299   -1.20097321053282    2.33722368084550
O           0.80093851589269    1.69574414000577   -2.17754677117765
H           1.53012470889408    1.76097590663208   -1.51428164718018
H           1.06089013313038    0.98126843764584   -2.76954141517325
H          -0.22551030560027    0.98161484087123   -1.33062836499976
