    19
        -40.91628506
S          -0.21147515776223   -1.16292482431501    0.51060034048639
O          -1.37599816688406   -0.34638311603306    0.24557638267790
O           0.74073602764954   -1.05889211910324   -0.68496000531743
O           0.48025011083348   -0.87817153263107    1.72544923272792
O          -0.63093662674758   -2.65134120010054    0.52788929157066
H          -1.35693792154387   -2.75032231754335   -0.13888981959890
O          -2.66315629257561   -2.25534115241659   -1.04748682512872
H          -2.44652614365723   -1.35788462407393   -0.73080457017193
H          -3.52816337054261   -2.47738077457017   -0.69469826528895
O           1.51634351701957    2.70731780041384   -0.37393168445801
H           2.37032368421448    2.84290874656625   -0.78847355795912
H           1.69704656568802    2.23199710066613    0.46824381220533
O           2.01529000201809    1.31479590872836    1.85625988905248
H           1.54106855005690    0.46186988951876    1.81846739137756
H           1.79491955782022    1.69873596791975    2.70729950400508
O          -0.06418190506425    1.07491479993818   -1.70643975326544
H          -0.87623796725835    1.04714774311075   -1.18475277728496
H           0.51025529475308    1.76635374153969   -1.28340343454324
H           0.48738024204931   -0.20740004742513   -1.22594515081163
