    19
        -40.91568347
S           0.68128472194799    0.07978514630134   -0.80976815924246
O           1.64835711349874    0.58804907087901    0.12716471327146
O          -0.11401949459192   -1.04420250538605   -0.09579288324260
O          -0.22118186240225    1.03146784751372   -1.37052673197281
O           1.37844692567408   -0.68960920502735   -1.94777164314682
H           2.10214232476213   -1.21236311923845   -1.51835642446237
O           3.05009437353131   -1.66111197832296   -0.20963112385931
H           2.68695968078123   -2.32202839652522    0.38526524872565
H           2.86803463931312   -0.78959864539086    0.18216044248202
O          -2.75289001223527    0.05464130706113   -0.93232569957760
H          -2.55027581304397   -0.85194165379473   -0.69086124154621
H          -1.95667027160006    0.40050005218482   -1.36505815450762
O          -1.89497060202730    1.89372721903537    0.87740951478944
H          -2.50086527702306    1.31203273724508    0.37833297343823
H          -1.31296704444320    2.26535882527973    0.20635063360989
O          -0.33980218783136    0.16828174610682    2.08028256795673
H          -1.00705120348223    0.85638250051973    1.80343085151789
H          -0.28358543670882   -0.68341229253834    0.86308443916183
H           0.51895944584348    0.60404135405517    2.03661067664513
