    19
        -40.92135331
S          -1.38021157073716    0.37884657831857    0.62254295287159
O          -0.78017712067949    1.68715080258295    0.76411807840384
O          -1.83120090991326    0.12749790661262   -0.74703985259152
O          -0.53194764781093   -0.69693662383596    1.11065036553780
O          -2.67418454613953    0.35502166222725    1.52533626938059
H          -3.15728717881620    1.11807409219555    1.22356902534226
O           0.47827351417126   -2.29943828281591   -0.73562404183723
H          -0.13422473518921   -3.01481423676649   -0.91636458006094
H           0.13114203520410   -1.82577923240895    0.05432379041063
O           1.38332836818560    1.50347781658721   -0.70170026529651
H           0.58635062330189    1.81096659024514   -0.20854573478948
H           1.88688070569566    1.00072696007051   -0.01769688851476
O           2.00919213558772    0.11713214703778    1.45986289362236
H           2.06954017591710    0.66424734578051    2.24486987055337
H           1.10686534347550   -0.25764040420939    1.45700441918425
O           0.22799648162214   -0.16727379240010   -2.11547608381842
H          -0.70837995978900   -0.00696127371428   -1.69484804271295
H           0.83700308924727    0.57881894938249   -1.59881300040633
H           0.48104121668611   -1.07311699489216   -1.72616916528228
