    19
        -40.91629966
S           1.57011398761569   -1.18922290464902   -1.26924296413025
O           2.21886878668684   -2.09709259351678   -2.13253915658828
O           2.27852241210923    0.18663150618104   -1.32839732875302
O           0.15309440338883   -0.97482057025820   -1.46109633055262
O           1.77364502214922   -1.65010053376613    0.20791134829213
H           1.16461019900842   -1.15048479334386    0.80136302497035
O           0.23047716718362   -0.30105756387721    1.88937827739921
H          -0.74074243746367   -0.33562915752203    1.68822090492402
H           0.35237065898001   -0.72844217215887    2.73920654221471
O          -2.33368681876795   -0.10948402160340    1.29037252401246
H          -2.83160195558668    0.56968224344534    1.74940210161093
H          -2.21870786371319    0.20276936711435    0.36978798504959
O          -1.60167533020125    0.89229439450093   -1.11149195623360
H          -0.98077859229673    0.14405209909707   -1.29898909429730
H          -2.08739521051591    1.04011677862130   -1.92446986252953
O           0.75547358452671    1.73090389115139    0.07643708595911
H          -0.11042831280273    1.68808945773362   -0.36322957850460
H           0.66600078959785    1.21865557278382    0.89326009075931
H           1.74183950984699    0.86313900015346   -0.81588360367878
