    19
        -40.91892037
S           0.04789176151656   -1.17222787305148   -0.04698154141606
O           1.27227597227203   -0.96425244074534    0.67678930500903
O          -1.16579774029681   -0.89744409779350    0.66057920208592
O           0.10266435805685   -0.33336833414022   -1.33777266116850
O           0.00657252890913   -2.62870463229497   -0.57163216335209
H           0.88460237635475   -2.76341581107415   -1.00770523509507
O           2.41527048956548   -2.17224571515850   -1.44971257444817
H           2.31842556978652   -1.51326537577346   -2.14285831092981
H           2.45756134055491   -1.68414253058363   -0.61201256157165
O          -0.70441319305205    2.83100374166298    0.56545077012547
H          -0.34761654983210    2.21264639091758    1.24352620453953
H          -1.15131486091477    3.53066544370208    1.04516186489779
O           0.05068313774393    0.92633562712059    2.29080489319850
H          -0.63648960538990    0.28416482301247    2.06460634056744
H           0.86773458596302    0.49411789872919    2.01245363104597
O          -1.90646182518498    1.12793964896270   -1.06415206142322
H          -1.50501271932119    1.87819791944551   -0.55674958567644
H          -0.71950470000058    0.30817856145967   -1.36697170665671
H          -2.28707090673997    0.53581673560866   -0.40282380981284
