    19
        -40.92246930
S           0.41373824674907   -0.68744781946931   -0.70808919357356
O           1.00127815964324    0.64294113552284   -0.24405904500304
O           0.60017278201773   -1.67206375944038    0.33214579695379
O          -0.93738585183008   -0.51646731480310   -1.14946353906476
O           1.30298638031206   -1.04494847692351   -1.91888586145097
H           2.19535629645351   -1.20423062715956   -1.52072973730370
O          -2.35434614484346    1.74499736570573   -0.82158388973647
H          -1.97717685288603    0.87306474895913   -1.04556215362903
H          -2.28841660692713    2.28177515820297   -1.61307775818788
O          -1.44313920398582   -0.71122297424593    1.81244435685783
H          -2.20353170050614   -0.90462845749663    1.25843563807397
H          -0.70383628876245   -1.22021257182443    1.43794406052377
O           3.21709137417321   -1.31441068233855   -0.17987079930964
H           3.37504264163999   -0.43138086380718    0.16580619263388
H           2.47975803119744   -1.68356668269878    0.33308087554145
O          -0.65363600998542    1.74430436699968    1.21193569937132
H          -1.35506184200254    1.97099557340385    0.55614627232535
H          -0.98997249072821    0.93772912452508    1.67295969476331
H           0.32107908025827    1.19477275686151    0.42042338023915
