    19
        -40.91833244
S          -0.94294890875001    1.41704362046855   -0.28977951604195
O          -1.84588341479501    1.08661381997733   -1.36403325789568
O          -1.30035312307977    0.72656370402837    0.95933907637344
O           0.46053555445288    1.23874609328882   -0.60596882587947
O          -1.13070635310484    2.96151700950680    0.00866616897488
H          -2.07529843887426    3.07805848046978   -0.02617845156625
O           2.29097564412768    0.57317289678538    1.10223124232985
H           1.67199697472067    0.98630083064062    0.44716455201477
H           2.99522018186939    0.16761763766250    0.59230127406346
O          -0.35400787138173   -0.95589819491026   -2.08781366212013
H          -1.05639777573096   -0.29464356287243   -1.91011358875055
H           0.43317702016930   -0.42138922601123   -2.22606995822134
O           0.11815114125105   -2.52049263314312   -0.04297568261424
H          -0.04585326270622   -1.95983608887810   -0.85162772505563
H          -0.63209037667667   -3.11408024535378    0.02364145903729
O           0.33710146164058   -0.86084536658367    1.86702569725341
H          -0.41476239696103   -0.15536461821121    1.55403206318738
H           0.28030569340284   -1.60011688351939    1.15163010530267
H           1.21083825045164   -0.35296728331991    1.69852902959892
