    19
        -40.92008986
S           0.07528773852314    0.39949778666474    0.70012076250339
O          -1.14839741535076    0.43857192085748   -0.05124888897667
O           1.11263494808131   -0.40177148710057    0.08601555628710
O           0.59915622393220    1.81955079401333    0.93224675020661
O          -0.19100926674984   -0.11243932545430    2.11851997822850
H          -0.97748384582996   -0.77329555106605    2.04560445170360
O           1.60544041877524    1.00688963953352   -2.16865660545473
H           1.47801795274278    0.37547262135913   -1.43741075493657
H           2.54578595484922    1.19368706536256   -2.20604411212875
O          -2.03199663628992   -1.70741800686223    1.47450456313055
H          -1.43760303919703   -2.34722901667660    1.02300275217792
H          -2.35018329352007   -1.11799718413190    0.77872139064993
O           0.01927382427171   -2.87078349725829    0.21982861897158
H           0.49150789658447   -2.03579576768173    0.04853051135616
H           0.64383412053433   -3.45118833050985    0.65984541871546
O          -0.20425857357703    2.75170878914841   -1.26627032171186
H           0.45217944045070    2.26486925685274   -1.81276552615940
H          -0.99346527503629    2.19511345458598   -1.25702126810139
H           0.31127882692084    2.37255684837260    0.11247674364213
