    19
        -40.92048084
S           0.64114571522067   -1.46607285983113    0.12911998660644
O          -0.42550930719106   -1.45528420168985    1.10952375315486
O           0.18887958656058   -1.59874791733254   -1.23883339368633
O           1.50682530249232   -0.28751541297430    0.28836117147627
O           1.54252005200196   -2.73168045066286    0.42963339477501
H           1.86951282523229   -2.98020267457603   -0.43015204110250
O           0.96581834863164    1.58088955029405   -1.43773639553487
H           1.25697854004386    0.79558458782208   -0.90735398251507
H           1.64992895339666    2.24603321973417   -1.33611355718515
O          -1.21091318884080    1.79552268202746   -0.15449831027047
H          -0.78933864948979    1.61122759920736    0.78550007714155
H          -0.39386862849420    1.83915880763076   -0.77671272217969
O           0.01184669726658    1.08074085274669    1.93362313994822
H           0.74393812755323    0.64069317857844    1.43635659635373
H          -0.46652941271727    0.33420333454694    2.31528323329731
O          -2.10074765685774   -0.48852012386166   -0.65226989276803
H          -1.43260023345618   -0.86627956067435   -1.26203645131245
H          -1.85732070443195   -0.93598551560835    0.18337369123023
H          -1.70056636688440    0.88623489460559   -0.41506831738536
