    19
        -40.91724284
S          -0.24560482111049   -0.05669466260441   -1.06609878880694
O           0.57260469136076   -0.92868497639315   -0.09683462445358
O          -1.61304102845841   -0.48544623736937   -1.05518006359444
O          -0.03998541072462    1.33284073612961   -0.77303234945641
O           0.41196868036515   -0.37398187619286   -2.42837919879204
H           0.42124057086544   -1.35986937914126   -2.49183120098682
O          -2.13237782905762    0.83185001962545    1.21478292089871
H          -2.03793934348242    1.72443900846208    0.87316168406976
H          -2.18181130674101    0.26151223434354    0.42539392752476
O           0.60048576471836   -2.93166908989949   -1.94385159524338
H           0.53474185812483   -2.62936993354823   -1.02671471754019
H           1.48260925886813   -3.29516944854217   -2.05882594493831
O           1.38717252492699    2.22898315557662    1.30797779817662
H           0.98062009944041    1.99837364334436    0.44983295903325
H           1.19468374195131    3.15535832364955    1.46273491789361
O           0.20302418704993    0.00176578182569    2.15407999797832
H          -0.73567932686245    0.28713488692450    2.02893581453269
H           0.45242020325771   -0.58209194754652    0.93616494318939
H           0.74486749532179    0.82071975155651    2.08768354057439
