    19
        -40.91641677
S          -0.80459032694313    0.55981824177702    0.62350493095805
O           0.49126039660778    0.72313959787346    1.39390868123232
O          -0.52756713173453    0.50470227567725   -0.79620634727799
O          -1.55666001491086   -0.55231994702535    1.11956237288465
O          -1.55785667187118    1.89147961460042    0.92967244127107
H          -2.42099517072595    1.81405272287568    0.47162075984377
O           0.32756835219270   -2.04970895567275   -0.35447304998770
H           0.01697995233419   -1.27918968617033   -0.85042492543582
H          -0.25599312237423   -2.09753854617275    0.41023265696478
O           2.92520171908867   -1.28882493796312   -0.22699771498995
H           2.04579835893180   -1.71170055675238   -0.31172574419793
H           3.27106354838662   -1.54696286014031    0.62915182608092
O          -3.38071382525843    0.72173080803596   -0.56521858792198
H          -2.77985085685514    0.59058303177810   -1.30584436265048
H          -3.29616064667258   -0.06007217367987   -0.00617429711960
O           2.15011897139271    1.22050902419975   -0.38981364471923
H           1.25686299931943    1.02933320935390    0.73041970026575
H           2.60205605364482    0.33457488738889   -0.40375622523827
H           1.49347741554940    1.19639423999299   -1.09743847996764
