    19
        -40.91618725
S           0.16255534334791    0.81886660447900    0.16471295972333
O          -0.96878826882235    0.59785065038710    1.01624571052379
O           0.43259470856359   -0.26572227929679   -0.75239796215021
O           0.00278939329748    2.11892442429883   -0.63463694804039
O           1.41694175684582    1.13303929498591    0.99160091606033
H           1.62097739595736    0.38711637366576    1.64907317707854
O           2.01899635013824   -0.86915593396090    2.45886682920113
H           1.77076743077300   -1.59164058214132    1.83674402782953
H           2.96999296028031   -0.91980837203257    2.58355041937431
O          -3.04476703321328    0.39129591901938   -0.65120098644458
H          -2.36793818746298    0.35393347090827    0.05384010172677
H          -3.73973330715970    0.96686246537132   -0.32560184392874
O           1.39491567675735   -2.45469112937551    0.42267837457354
H           0.94618550884025   -1.73217472285570   -0.06212720681237
H           1.97253135768445   -2.88517749411284   -0.21074397618768
O          -1.28078810163662    1.04193827334617   -2.52968124329736
H          -2.08330057159796    0.80371375313542   -2.00957101262533
H          -0.49736873066987    1.85206212778318   -1.48471370732249
H          -0.72656367190663    0.25276714719422   -2.51663760861154
