    19
        -40.92135330
S          -0.68347121162662   -0.63981182601518   -1.24893768834406
O          -0.63441433487738    0.74320266107737   -1.72460946267959
O           0.58783596425360   -1.31235964357858   -1.40388734219876
O          -1.21379910575017   -0.71924505351347    0.10302296629212
O          -1.72300568671049   -1.39036099991554   -2.16879282612782
H          -1.27579862009967   -1.42415060678118   -3.00877495472263
O          -1.23031711668111    1.54456787635893    1.47206059704803
H          -2.04367694224286    2.02270310201109    1.30035581255169
H          -1.33801798457820    0.65367293538167    1.06787075781516
O           2.14207247816985   -0.01302102975288    0.25836507186680
H           1.76858255923991   -0.54092626652361   -0.48633732636732
H           1.79109169848484   -0.47603420881308    1.05625740092084
O           0.66260827004516   -1.50032075476935    1.86606982646550
H           0.83321385099694   -2.43820668058395    1.76364153729441
H          -0.11197247661458   -1.30080688044996    1.30490363172380
O           0.74488536061923    2.00202363899964   -0.07796397320723
H           0.20882411996420    1.60534389940260   -0.87474251204014
H           0.05532148381517    1.98088430647768    0.67042393793226
H           1.46003770317632    1.20284554133313    0.13107454641502
