    19
        -40.91814240
S           1.60600852219331    0.68391942876685    0.24868584961766
O           2.36005424826277    0.86352501546063   -0.95726163547973
O           0.33807932780873    1.40464231621018    0.30260518481325
O           1.40664073475178   -0.72858814862122    0.59906220831719
O           2.47793495559652    1.29461268914965    1.43160846317147
H           3.36967498605029    1.22089300540736    1.10524468720626
O          -1.68590107809861    0.60171699597231    1.70612855662677
H          -1.54116957380912    0.84671716832239    2.62192934045857
H          -0.96526839225762    1.04120907223884    1.18369804412664
O          -0.04009766026256    0.49817705099534   -2.17674066116871
H          -0.13292200350130    1.04695075720252   -1.38029843188114
H           0.91849333238328    0.42722881383586   -2.27649743207204
O          -1.54531729997634   -1.56288510529973   -1.57002217133806
H          -0.93805058125485   -0.85185402367293   -1.90681420355435
H          -2.43784020649726   -1.25986506547924   -1.74904734125980
O          -0.85636230062882   -1.65089139824833    0.86924220302292
H          -1.17881480482713   -1.71607784045327   -0.11033752010452
H           0.16337498118260   -1.32563410486761    0.78170464938524
H          -1.31851718746414   -0.83379662682936    1.27711021022785
