    19
        -40.91893391
S          -0.51933751749142    0.56655166896746    1.55884863719089
O          -0.00587138634827   -0.38487956101922    2.51164277007567
O           0.48834718571468    1.31013774131792    0.82834554021678
O          -1.49646575339671   -0.03983909806738    0.64190786064647
O          -1.33417503610114    1.64253706088875    2.39424643081377
H          -1.68057057411876    1.13175625011789    3.11972937228361
O           0.46749895891421    1.81336311956365   -1.71236618381043
H           0.08403713652185    2.68198468567001   -1.84659861643463
H           0.57271939771412    1.70351843603393   -0.73179421411892
O           0.53978175537086   -2.19288353240065   -1.43279788616453
H           0.09578476708824   -2.98661805908436   -1.12785244237444
H           1.06853782890693   -1.85773281042873   -0.65946244762948
O           1.71859903038439   -1.17814226188886    0.67869753466748
H           2.05061586492453   -0.29354810257883    0.49841182165792
H           1.12651603182042   -1.05922536348846    1.44912872838714
O          -1.02771425455370   -0.23690104951270   -1.76519770629397
H          -0.43195598507124    0.58358377514919   -1.91579911485734
H          -0.40060712022644   -1.06158360340008   -1.75045820311880
H          -1.31574033007965   -0.14207927587634   -0.73863189111666
