    19
        -40.91628466
S           0.54286546302991   -1.08235182984596   -0.44253747762853
O           1.42237291128941    0.03666821404887   -0.18315225499595
O          -0.45682933549373   -1.19616670060782    0.71262856173725
O          -0.14186146914303   -1.05390390449048   -1.69379369971838
O           1.35769777763259   -2.39441518610979   -0.36479378490416
H           2.05001279837103   -2.25898297844517    0.33070358674947
O          -2.19629658432555    0.64035692635530   -1.99646731299740
H          -2.03899039955291    1.04016861200587   -2.85411254805713
H          -1.51511523671310   -0.05232080875486   -1.89690710843276
O           3.12400065698563   -1.38112669400834    1.25462431178531
H           4.03241625401770   -1.36876590255498    0.94389432722046
H           2.68321018844710   -0.59408484571458    0.88191046076636
O          -2.22007038959424    2.19074933618173    0.18502075379346
H          -3.09801859905165    2.09464320869743    0.55843215763318
H          -2.21771171715789    1.65613386569964   -0.64071224194306
O          -0.31499183443118    1.11506236731422    1.65197887445169
H           0.49599974460676    1.29255144069450    1.15883621745191
H          -1.03768241136307    1.60303748673466    1.17598834037673
H          -0.47100781756546   -0.28725259717002    1.21845883670093
