    19
        -40.91880959
S           1.07897770741803   -0.48627710901953    0.05053654797480
O           0.19359139742863   -1.71837310175866   -0.17823895410215
O           0.62736971878012    0.58283424893130   -0.81701972793048
O           1.14429366582058   -0.15847409583683    1.43543230022701
O           2.45709466471067   -0.97045760345706   -0.43883287750077
H           2.41801595156596   -0.94000078767073   -1.42997326676815
O           1.92415304879717   -0.38504279930637   -2.90881206386623
H           2.50658718465851    0.25556377912637   -3.32481030617248
H           1.24741745689379    0.11958540515339   -2.42048069054721
O          -1.21618138016714    2.31891460878747    0.19308928239817
H          -1.96933573981262    2.20158139048423   -0.38933427837656
H          -0.48800357123371    1.80335901313928   -0.19566468854473
O          -1.27484550513309    0.70222140105423    2.35742265498025
H          -0.33148168201665    0.47480494595934    2.34332730472698
H          -1.35226345258730    1.46939243650906    1.75494318299222
O          -2.05279748115137   -1.24834617168533    0.86137893892510
H          -2.31184322482664   -1.98362178111799    1.42144803938828
H          -1.84858432966236   -0.47798658577535    1.48318462537870
H          -0.75216441947753   -1.55967718354439    0.20240397681712
