    19
        -40.91955068
S           0.41211428724362   -0.45073095649900   -0.99447455076180
O          -0.92914636471863   -0.85361567658818   -0.63956608082378
O           0.46418944274309    1.08809641635142   -1.03497607494995
O           1.44972290142733   -0.97416087382708   -0.16983272142105
O           0.67486382935795   -0.81335304582032   -2.46983153468495
H          -0.11571622192386   -0.45109752400314   -2.94401695293000
O           1.13973568768164   -0.24890111892612    2.44375212852656
H           1.49184194767026   -0.68916147122430    1.65389002882374
H           0.23129537850302   -0.59908790080440    2.53787792429087
O          -1.61007746611016    0.31984634409606   -2.95770018418797
H          -1.48709227252095    1.25643153430903   -2.77952053229056
H          -1.81667691612783   -0.09840315293876   -2.10593303165182
O          -1.31650528350172   -1.29541062170317    2.01371624653831
H          -1.47250223493340   -2.23576623320595    2.11850997024805
H          -1.28264215011299   -1.12874155825410    1.05495217182896
O           0.87233925008861    2.02144393849451    1.25376673151596
H           0.61262258155564    1.50924370808599   -0.09183547757397
H           0.94930809353986    1.19561621734106    1.83079637373151
H           1.73232552012575    2.44775196511741    1.28042554577973
