    19
        -40.92343505
S           0.82247781133380   -1.47174273968858    0.04780511366961
O          -0.50690541996344   -1.94300258079429    0.37194273785678
O           0.98829172424643   -1.25051893811942   -1.38969715222335
O           1.20155789321113   -0.29919650828730    0.82036913730619
O           1.84344959664227   -2.60643910235146    0.43769994802810
H           1.58795463392869   -3.32343801178330   -0.13430159398938
O           0.99229818528202    2.12933141133967   -0.26446362943972
H           0.40546594920980    2.50104126113721    0.40325107782873
H           1.34661166888203    1.30838811270056    0.13647324544179
O          -2.06811795405576    0.04184504604780   -0.30915697099712
H          -1.86685814970002    0.58811865083128    0.47941683244938
H          -1.67174469909138   -0.83575560265954   -0.09283349714349
O          -0.81537258158247    1.11525772691247    1.81026498303208
H          -0.05508158402232    0.53629900561876    1.58094586363528
H          -1.09907341483797    0.85055662372293    2.68637469931921
O          -0.34269454210285    0.77019883235515   -1.95228032896157
H           0.24288179998132   -0.09236390936440   -1.87527106323934
H          -1.19105409221061    0.51959333250430   -1.35057902839168
H           0.18591317484339    1.46182739990240   -1.40596036416989
