    19
        -40.92079110
S           1.44005637500989   -0.10850136349805   -0.34712859767332
O           0.54422732547359   -1.18847546031037    0.04281055439279
O           0.72041433197215    0.93332798647700   -1.08239946138454
O           2.23115853149669    0.42325629990354    0.73238448672872
O           2.44087149834652   -0.76039260169580   -1.38566580956803
H           3.08777346949270   -0.07633659432771   -1.52794466026806
O          -1.33910099503443   -1.76558557094707   -1.68896532025261
H          -0.52720986081749   -1.70164161299544   -1.13250638339363
H          -1.85146942904322   -2.49859984552247   -1.34188720689719
O           0.41861164082454    1.72053876779580    2.15318709438061
H           1.14531412663724    1.32780241035844    1.62276952970310
H           0.77065978852274    1.84638422396646    3.03640961875139
O          -1.42360140117100   -0.00801619166874    1.39962317758609
H          -0.73339870061695   -0.64472264482614    1.12392891896913
H          -0.91347842724370    0.72482220079596    1.81761894005259
O          -1.73754111831182    0.66162462547731   -0.98071612474435
H          -1.77094287547650    0.46603507533305    0.06708165194785
H          -0.71980616304103    0.90778356835502   -1.10366245312797
H          -1.78253813720199   -0.25930330230074   -1.40493797534579
