    19
        -40.90685407
S          -0.65832147697836    0.19221095294617   -1.69030532127187
O           0.73008129349665   -0.07553267483939   -1.93760073632853
O          -1.35948189861328   -1.03757208243114   -1.14293576697417
O          -0.94305249064889    1.34284815514277   -0.88902190087095
O          -1.36647576912615    0.38369082450225   -3.07713588443736
H          -1.00347256149407   -0.27676892828600   -3.66376540541944
O           3.94736394997292   -0.70571626764232    1.43817820380713
H           3.04533013318593   -0.41543028019728    1.24578291574851
H           4.13188398674483   -1.42689923402329    0.83467740296357
O          -2.10356472342691    1.23712278220853    1.53760185259409
H          -3.04284774057131    1.41634196301386    1.46969748242555
H          -1.71174291379382    1.46480760771478    0.67378810214330
O           1.34357877980056    0.15737888467911    0.63584848441364
H           1.31276860970177    0.06001063670241   -0.33546959566967
H           1.24087263621572    1.09537285356696    0.81665208068998
O          -0.92347786058010   -1.11405233890842    1.28120085409166
H          -1.44529191420324   -0.33518629861663    1.59249545347124
H          -1.20406730732450   -1.15279512612569   -0.06570110627749
H           0.00991729764746   -0.80983142940475    1.27601287489649
