    19
        -40.92179447
S           0.50804137398798    0.81711541611609   -0.02089471075132
O           0.90077353722924   -0.51643987059690   -0.71540476639304
O           0.45108236677472    1.87078901542425   -0.97661122457264
O          -0.72411980687822    0.59545073977406    0.70926723476946
O           1.65644754792117    1.02400996803808    0.96052991226886
H           1.84930216565700    0.11809681630618    1.40768931679293
O          -0.64021113177456   -1.44576211702480    2.41460287443099
H          -1.00534969673068   -1.15674370908280    3.25298644949118
H          -0.81283334180055   -0.72498672770253    1.77463391443506
O           1.93609461316488   -1.31969697156135    1.86741364589763
H           1.01878574154728   -1.49806726965837    2.19387910136436
H           2.02328466671610   -1.81076569447166    1.04496821566981
O          -2.26324628564084    1.00389249431504   -1.47916520334846
H          -2.12056102345396    1.94516864128982   -1.60873526130139
H          -1.90853724214371    0.81116022499007   -0.59476570637171
O          -0.30865125684749   -0.10595448134965   -2.90330158029104
H          -1.16605760557029    0.19292734365108   -2.51335996171187
H           0.14179849341519    0.69882025216789   -3.17736474219574
H           0.46395686482984   -0.49901409019904   -1.63636750818329
