    19
        -40.91124408
S           1.51234972289082    0.48142571807460   -0.03217716223091
O           1.01414956816541   -0.52714315182481   -0.95368424164909
O           0.80087096276447    1.73877066386886   -0.15040492078569
O           1.52826548497642   -0.02706136784573    1.33859575956950
O           3.01347861967204    0.77349545820026   -0.40296509698373
H           2.94684171294077    1.38509460131799   -1.13075761864295
O          -1.63022778259779    1.26836756567207    0.53642407325042
H          -2.00065984203483    2.04391066195559    0.96302030145504
H          -0.72880762921710    1.53523231420115    0.20003406833514
O          -0.56562792595105   -2.39263688980734   -0.03153549534394
H           0.00948898138732   -1.76366715092750   -0.53476460427141
H          -0.04809792787435   -3.18957613636383    0.09997332134083
O          -1.15955414392540    0.47407967676757   -2.40162179913428
H          -1.70665870678829    0.71576691313336   -1.65046998603394
H          -0.34040623570087    0.11975666568105   -2.03121360716891
O          -0.78117722893215   -0.73267159284517    1.84592066927669
H          -0.82754552960508   -1.51396536618491    1.16272713481906
H           0.23873512531931   -0.44050609737552    1.77209925597888
H          -1.27541722548434    0.05132751429931    1.40079995822926
