    19
        -40.91624656
S           0.68504015161187   -0.23577484065111    0.56387767015528
O           0.50564234718896   -0.50158708784245   -0.94263823385854
O           0.62148908322950    1.18736584719284    0.78800061597186
O          -0.23874399071693   -1.02711039717198    1.31186984089092
O           2.11372113200243   -0.74464192772287    0.84320982084051
H           2.73377808916469   -0.01467503901559    0.58054272361624
O          -1.67344512433263   -2.47279835924768   -0.55355173494653
H          -1.13260094194223   -2.24949195972351    0.21924753686436
H          -1.09556645885992   -2.38125327523610   -1.31471936192267
O           3.19667473458713    1.54958689868481    0.31267345112992
H           2.25947402272907    1.78781467868376    0.44131471028325
H           3.69474320085473    1.96988658613187    1.01825619454288
O          -2.72444814659294   -0.08171225279090    0.22002963935160
H          -2.69914653994155   -0.97493149285453   -0.17318077380567
H          -2.17684557997032   -0.15536988635886    1.00982094422895
O          -1.17780807527322    1.29544639273831   -1.38048505257603
H          -0.80368300552307    1.95951329051343   -0.79144882651745
H          -0.16539436216909    0.21696541452195   -1.28155759361601
H          -1.92288054604961    0.87276738013542   -0.87126156061461
