    19
        -40.91413649
S          -0.26315375155632   -0.10387930369821    1.06266581520836
O           0.05788426165361    0.94791759209104   -0.03036820599692
O          -1.42043108829585   -0.84801983444958    0.62870187565643
O           0.90211591769690   -0.86673195072141    1.35593445246496
O          -0.63173773300249    0.76908421643163    2.27872648640724
H          -1.58278520614163    1.03467983993918    2.16141997160298
O           2.68102035158159    1.08181779941065   -1.18587425283441
H           2.48683724293330    1.50893064147121   -2.02283537637319
H           1.94129518122156    1.27653933551751   -0.59688671279211
O          -3.13599160209767    0.89240859023075    1.62390785789115
H          -3.76065018536661    0.52272121416544    2.25290297072201
H          -2.81134132370703    0.15275876742476    1.07548026633889
O           1.97976976677252   -1.57505471125683   -1.07151899381871
H           1.75588350758960   -1.58332337437258   -0.12730045622894
H           2.53241498280122   -0.78128683367503   -1.18627297830594
O          -0.26486538425617   -0.61162722698272   -1.95056036822833
H          -0.95873375076912   -1.14916683553261   -1.55384868422417
H          -0.10471509041854    0.43269026570404   -0.92506159191439
H           0.59718391334348   -1.10045819172837   -1.78921209557959
