    19
        -40.91790567
S           0.07685258016568    1.01852023496324    0.09245550131665
O           0.73838469386922    0.50577361196367    1.35826864384542
O           1.05836755673568    1.22899022952447   -0.93261037135420
O          -1.01894235713929    0.16493081689102   -0.28905976205401
O          -0.49732149701559    2.39414414698508    0.55431552424330
H          -0.90710375223348    2.77137635332899   -0.25210674891464
O          -0.33393891188650   -2.47835269081326   -0.10725325599923
H           0.59700692587412   -2.32787498972725   -0.35572799557360
H          -0.80181417911172   -1.70206553107484   -0.45017874882326
O           2.06903547586048   -1.28513577583821   -0.59955307265597
H           1.83918427685061   -0.38925259356314   -0.89123367405016
H           2.64546764394068   -1.17864318680030    0.16013655023766
O          -1.23841677056474    2.42184293098108   -1.96471933257335
H          -0.33458440179453    2.24314301431070   -2.24910508478770
H          -1.66454367069012    1.56224723629743   -1.87534922205845
O          -0.53280313783561   -1.44437293163103    2.25334754308243
H          -0.44861863645810   -2.01849229250314    1.42930066093573
H           0.21241477891811   -0.29299400439845    1.81187797203861
H          -1.45862662750013   -1.19378457891955    2.30719487313654
