    19
        -40.91372181
S           1.22813594500945   -0.99094495423736    0.78134819922329
O           0.15665295244612   -1.64724114966688    1.46744056635039
O           1.11819366667206   -0.88390310736411   -0.63463921185824
O           1.49798673799049    0.38421429554883    1.41617141683757
O           2.55893737459020   -1.74112692880088    1.12176211987658
H           2.50213912172487   -1.98842731226138    2.04212759846250
O          -1.95810123641275   -0.18702248497847    0.55076376043206
H          -1.97073113117726   -0.42589397507224   -0.40984897415960
H          -1.41138803609684   -0.86340298872247    0.98024398117252
O           0.24578016539383    1.37793795299435   -2.04943914888393
H           0.82458487772601    0.66832957631775   -1.74031372515155
H           0.00837103437878    1.88059713004827   -1.26224112666187
O          -1.46966247877117   -0.74913834107648   -1.99466773708871
H          -0.72044806340357   -1.33761988392769   -1.85976853113739
H          -1.06625409549578    0.09968003928989   -2.26062153704503
O          -0.43172498836900    1.83706481951816    0.70280650123254
H           0.75952977608677    1.04052822934392    1.13366993452906
H          -1.13147192491484    1.09339189617810    0.62637694826199
H          -0.74052969737528    2.43297717687238    1.38882898560092
