    19
        -40.90958671
S          -1.47707284325373    0.84447782209281   -0.85792417806327
O          -1.56836788458920    1.33466393953608    0.48707453503504
O          -0.03770868055854    0.94011166251623   -1.35685128041734
O          -2.02040352551074   -0.45216097174120   -1.10382139699055
O          -2.20452612667359    1.87150213509902   -1.79474784827060
H          -1.95957566117671    2.73489566330182   -1.46992883460415
O           0.15019657156244   -0.08317348919158    2.01556170566839
H           0.86032667574440    0.55577565449897    2.18556164899355
H          -0.58626212817725    0.43695818319333    1.64735191915607
O          -0.57556256100860   -2.71981080956374   -1.00473555460316
H          -0.98288468564275   -3.27077129870384   -0.33316943585208
H          -1.20733529503119   -1.99831434652905   -1.18298220650856
O           2.52930689448295    1.23561193816705    1.42703013503337
H           3.35720247864887    0.93550509538647    1.80711405347193
H           2.44929707660574    0.81284638894754    0.56552767862907
O           1.18198357355720   -0.89379710866054   -0.23318726711552
H           0.71083617940735   -1.69396605260821   -0.56618077871680
H           0.54782802104907    0.15034912579627   -0.92449714824005
H           0.83272190877697   -0.74070353364697    0.69280425194993
