    19
        -40.92217262
S          -0.76811108032917    0.83802894462999    0.78492534645642
O          -1.37291284461224   -0.27087766564177    0.03576923419524
O          -0.99996056831066    0.75650710999552    2.19848630881689
O           0.61187907186012    1.04356923092816    0.38197126005115
O          -1.53127830732326    2.14475012834946    0.26699377407778
H          -2.20757633554673    2.30293615977669    0.91903243074977
O           0.48209565169829    1.34977652946105   -2.21124711494301
H          -0.29894810322667    1.86991757944892   -2.40983124088059
H           0.62828560428191    1.43692401700199   -1.24124655279276
O           1.93294223845329   -1.27032426253646    0.07988470670713
H           1.43537161753090   -1.65063606761301    0.83732138871814
H           1.89112636915473   -0.31248709787412    0.24946770220240
O           0.11265215194005   -1.68409800721979    1.99090087914236
H          -0.66157253828766   -2.18046908443051    1.71511801035871
H          -0.22090888927838   -0.80752843320464    2.25234748017310
O           0.17454110614613   -1.13835973427028   -1.68807543962511
H           1.00225998562436   -1.31480314875186   -1.03354913790785
H          -0.57561533606665   -0.86674135249988   -0.99630608599658
H           0.36573013752397   -0.24608479690508   -2.13196291949873
