    19
        -40.90733261
S          -0.51039139032418    1.36400443957030   -1.19110177409176
O          -0.77877873321203    2.24768016031808   -0.10356562179196
O           0.75487498218955    0.70548704530484   -1.23935017556738
O          -1.64182556862781    0.34119716353236   -1.32625290327410
O          -0.64673094188335    2.20705935690470   -2.52099694340339
H          -1.30223654648934    2.88155007130807   -2.35505846962074
O          -0.74812773155779    0.22443954475679    1.74813813935229
H          -0.85921488418325    1.04216116346719    1.24362665276520
H          -0.03042222588934    0.38416167116647    2.38212867619635
O           0.85605914787985   -1.43533672080652    0.42338841390304
H           1.21388808657924   -0.69549727175636   -0.09166621449102
H           0.12831797187547   -1.02267615786418    0.94421774117653
O           1.72550605240432   -0.33175050869431    2.94781040737496
H           1.77488353091263   -0.87696861922191    2.14958742979431
H           1.72947535416772   -0.93532181885860    3.69249855365078
O          -0.51910202749328   -1.87420924987884   -1.78472071257037
H          -1.26599476290898   -0.59406482810605   -1.54355992138737
H           0.14712090416064   -1.68225696127887   -2.45015496059840
H          -0.02730121763572   -1.94965848984376   -0.92496830740814
