    19
        -40.91814227
S          -1.43832856238060    0.97972223719466    0.29135770780135
O          -2.66304327049982    0.29318143628007    0.00040575659811
O          -0.74086295431673    0.44041215936459    1.46626671488405
O          -0.51612286627191    1.10918316196211   -0.83203757506331
O          -1.82842684340919    2.47238746991746    0.67894134617995
H          -2.70958376187640    2.38213051827747    1.02904092268736
O           2.05455202027150    1.25942978936516   -0.54856947748818
H           2.28571599325656    2.15835148624697   -0.30760089815325
H           1.08908089447187    1.27318955739305   -0.77910845361509
O          -1.06530917140885   -1.45639004238994   -1.31618410960106
H          -1.90844538452453   -1.32806695413296   -0.86065193813552
H          -0.76542190672208   -0.54540098511125   -1.47071195001883
O           1.00936150498090   -2.49910106814928   -0.09804490013683
H           0.16127722892145   -2.21621009874587   -0.53315441262151
H           1.61864883264939   -2.70826829684691   -0.80896645588237
O           1.54830909070783   -0.43681910701535    1.27569867689183
H           0.55602563559401   -0.06577162366446    1.44729507560687
H           1.39541977159947   -1.33230675082400    0.78297612654218
H           1.91715372898254    0.22034708088818    0.58304781352802
