    19
        -40.92044754
S          -0.27907400752307    0.82761346666227   -1.33651687979082
O           1.03916193126807    0.21973011792636   -1.49991039215142
O          -1.34081159073662   -0.14493394163331   -1.50804519234114
O          -0.36942064778744    1.56584308491835   -0.08835797853521
O          -0.45451517442668    1.89368440511796   -2.49348405120836
H          -0.74944292127162    1.37298904733663   -3.23449073078065
O           1.96315839362522    0.52430186999795    0.88824044230104
H           1.51484426177961    1.35570915800922    1.08138963231046
H           1.79705568576193    0.40298740800743   -0.08399187031011
O          -1.59093582731421    0.26269787869869    1.77992406478436
H          -1.76363623419325    0.87596797082687    2.49680978776803
H          -1.27357834113540    0.80358089695367    1.01017838063874
O           0.02929212980213   -2.15824317893124   -0.64462015771722
H           0.81612482441830   -1.85975547824605   -1.12000356865188
H          -0.67300875634930   -1.54022021075900   -0.97420182549278
O           0.40713415309699   -1.29250993454844    1.67715245424788
H           1.14033671445890   -0.57507582295767    1.45039424034509
H          -0.44964182075531   -0.75135644465607    1.84465660755927
H           0.23695721728208   -1.78301029272452    0.75487701702503
