    19
        -40.92079118
S           0.89342409965666    1.14144272673628   -0.32621705105392
O           1.27721688562744   -0.13869922263980    0.25247260961323
O          -0.24184747592710    0.98832877774352   -1.23811506663553
O           0.68863134260282    2.18964939327305    0.64001185447960
O           2.12123096733491    1.56896539872202   -1.22892871324417
H           1.90330420662648    2.45841100268910   -1.48928770208729
O          -0.94643575980901   -1.08429661432278    1.37946721407060
H          -1.36204195026634   -0.23442002729111    1.65730111223852
H          -0.01046754108936   -0.84600783620318    1.22176033078127
O          -1.56213127648112    1.44284379936213    1.80686583077951
H          -0.77299025714021    1.81204865268555    1.35431413766652
H          -1.61742854972397    1.88936331516712    2.65385979893371
O           1.04648301185678   -2.21138010747451   -1.33794302106203
H           1.33937269435361   -2.98977262291118   -0.85978303344148
H           1.33067332717825   -1.43105122154097   -0.80568282834612
O          -1.30751908450941   -1.24021396025067   -1.08194233573512
H          -0.49184367059909   -1.79062011208781   -1.33155422000660
H          -1.32146452979620   -1.26739811469589   -0.01604601177581
H          -0.96616645989535   -0.25719321695107   -1.25055290516668
