    19
        -40.91624676
S          -0.56866459457459    0.52752146597329   -0.49064515625430
O          -1.21463305560451    0.56070773779051    0.79820103453562
O           0.95278264191649    0.63780474408185   -0.27739896649512
O          -0.86548262296392   -0.60476402500889   -1.30851288486840
O          -0.90727993373432    1.81003592289545   -1.27712295715862
H          -0.99144035956434    2.54066634448822   -0.60962715335321
O          -1.30555196935953    3.20187107499845    0.87255507575178
H          -2.17853288297187    3.58520100541372    0.98865785819875
H          -1.34686363504062    2.28668479339688    1.20776317835571
O           0.27336039683009   -2.70883151424613    0.28186047975766
H          -0.53103364320722   -2.34291748133661   -0.10328743189591
H           0.91892370048651   -2.69099182076971   -0.45018506957108
O           1.57254126869910   -1.75390413937335   -1.91453758438900
H           0.68950164317894   -1.36555168225411   -2.00933789296935
H           2.15891870545250   -1.02512599310661   -1.69841034493371
O           1.07612642779789   -0.73897670380753    1.80686343290707
H           1.15522946225593    0.12301954252920    0.60323013069321
H           0.25416004026308   -0.43198241197117    2.20443410302160
H           0.85793840011667   -1.61046685973193    1.37550014865606
