    19
        -40.91317569
S           1.56997129855146   -0.01690328294112    1.27725269417325
O           2.18436929700421   -0.64439639815681    0.09104045726188
O           1.80517690618047    1.39985855834742    1.32525591455143
O           0.16059872241053   -0.37602152113809    1.36895541865174
O           2.27741633908628   -0.67731062357424    2.52625864527730
H           3.14092458526138   -0.27419922195836    2.55887363132777
O          -2.86816239020784    0.32706900726979   -0.89112917406796
H          -2.21818987357213    1.00108766520631   -0.64819409043692
H          -3.31169363650102    0.63251459214421   -1.68370190811367
O          -1.19736355947654   -1.77048835436903   -0.47724174542793
H          -0.80994483106906   -1.51607283692166    0.38445874964787
H          -1.99207466347069   -1.21014965844479   -0.58075745280279
O          -0.42040246083160    1.57682837240318   -0.28095774949355
H          -0.35891089723529    0.93565258924389    0.46468756300283
H           0.23159392057683    2.24565987015898   -0.04343900604890
O           0.51626379640932   -0.42057407992200   -1.68677453066471
H           1.34585315412251   -0.57239934415996   -0.99103561940848
H          -0.21408589908797   -1.10989695063043   -1.31407627872023
H           0.15866019185113    0.46974160734617   -1.39947550864955
