    19
        -40.92135271
S          -0.73209769438728    0.35976735701032    0.35110611091541
O          -0.63185660049327    0.33564490287790   -1.12186075095063
O          -0.90884247528450   -0.99005092835898    0.87806518167137
O           0.41297725874227    1.03191588102420    0.92666905259245
O          -1.99748221925511    1.18806757642132    0.70413328483329
H          -2.75112777891745    0.57943163630783    0.52895180402566
O           1.62908355070072   -1.60975059222435    0.55597353450229
H           0.66335481050694   -1.55466205889371    0.73658488510182
H           2.03875650646921   -1.02417459556154    1.19952786199925
O          -3.50557811253653   -0.94197317518453    0.44078259212675
H          -4.00213633029150   -1.22352494233690    1.21291337891497
H          -2.59599369428644   -1.28101915362521    0.55406822274954
O           2.40253825628809    1.80811979153943   -0.58026173299808
H           2.16854925863203    2.63840249052178   -0.99945789382710
H           1.70629621388132    1.63581386420096    0.10058119171854
O           1.64350113085655   -0.36550174684122   -1.66998641966518
H           0.58086436895470   -0.08353657281764   -1.55436213914360
H           2.11301330773227    0.49687243844486   -1.38860484721149
H           1.76618024264081   -0.99984215258235   -0.87482330734404
