    19
        -40.91624652
S           0.21629477291804   -0.23074441367703   -0.86271955129768
O          -0.62618789669171   -1.34297353155692   -0.49873573822412
O          -0.41245879717278    1.06072581843279   -0.30591968402063
O           1.58191414645498   -0.32264539630098   -0.45567855933260
O           0.16697037061215   -0.01575060782796   -2.38886593362147
H          -0.75093315320230   -0.25710074706416   -2.68133682375464
O           1.29706254386492   -0.26871806830879    2.40571524682850
H           1.59330938833070   -0.78000763781674    1.64414263453471
H           1.67708895570361    0.61875365846724    2.26076193128727
O           2.07909391900169    1.95041605869118    1.03238093579585
H           1.33347482977374    2.49268032529374    0.76476175969515
H           2.15520716178050    1.25352816503054    0.36284652000726
O          -2.19805020479760   -1.05379488627224   -2.60535811380633
H          -2.28715631489201   -1.82700881027420   -3.16813781130996
H          -1.91333750538599   -1.36895793015130   -1.72719155421825
O          -1.23470550683177    0.09738345736473    1.85093605865400
H          -0.33728341905271   -0.04373824423358    2.26073906780749
H          -0.83816183211767    0.79928060060100    0.60573846305170
H          -1.50214145824338   -0.76132783052114    1.50592115175043
