    19
        -40.92182565
S          -0.70203887595423    0.28179670952610    0.90216475058513
O           0.44078553536275   -0.48494511229529    1.32145237645765
O          -1.46040142729816    0.94517165421801    1.90956227233437
O          -0.30115959204814    1.29383711950300   -0.16321240148813
O          -1.62830921340084   -0.71584598414939    0.12081230739027
H          -2.42968169966513   -0.17346335901037   -0.07710081470572
O           3.00414096816218    0.13334882650314    0.59788001872220
H           3.55539311693131   -0.63998794973031    0.73486705371110
H           2.16865408699774   -0.03867359087198    1.06475796324495
O           0.67132458348440   -2.11818454796345   -0.82143817925080
H           0.61962931363880   -1.73533051490690    0.07187302159026
H          -0.22357937561980   -2.38909281129730   -1.03768995585152
O          -3.28705659811464    1.28181310025342   -0.01297410827257
H          -2.90983514063894    1.96255095029620   -0.57688248807346
H          -2.92487391817669    1.43398290325226    0.87624230506376
O           1.47579658105805    0.30590651318179   -1.57848467089818
H           1.23357791834198   -0.64910579708161   -1.54733640521125
H           0.46400774757191    0.91801470044357   -0.82874088556277
H           2.23362597936365    0.38820719008682   -0.95575214980949
