    19
        -40.92161607
S          -0.98896227439398    0.33444365441248   -0.22612035042658
O          -0.78429801494320    1.52958720768204    0.55917424003110
O          -0.29060790274304    0.30417268924021   -1.47526275188692
O          -0.63465703198942   -0.88184702249675    0.62972367494019
O          -2.49839359335446    0.13920406184509   -0.47909538448361
H          -2.90867302736804    0.23223074413004    0.41779767506657
O           1.87834474969468    1.46662210202985    0.09638316812509
H           1.86093688320030    1.57187716229181   -0.85822538997348
H           0.98464259533886    1.70141832452563    0.39772245171221
O           1.57191482221494   -1.56290648310946   -2.05198123025562
H           0.83167725980837   -0.93238442048812   -1.98602787410433
H           1.93864306806636   -1.47026859547509   -2.93248905658608
O          -2.78360685342185    0.53886625574106    2.07314721052818
H          -2.07600178866009    1.17809767230276    1.89090933315815
H          -2.36703644853551   -0.21742840221048    2.49603442119551
O           1.82628087795382   -1.15161912188866    0.58206320398463
H           2.06376850412493   -0.19616743655216    0.51803737272510
H           0.42874996635000   -1.06947419632079    0.66628669949667
H           1.94727821861513   -1.51442419564956   -0.31807743323239
