    19
        -40.91633639
S           0.54193987027575    0.69916489396438    1.10650835738379
O           1.35541590576510    1.14003491178559    2.18763126375236
O          -0.01504709160950   -0.62798661804084    1.24160477946170
O          -0.50797689638093    1.70438200022828    0.73820644364370
O           1.44049503032014    0.65169001508734   -0.21431877677438
H           2.15396864469882    0.03366298484885    0.06657714624855
O          -0.02713219159765    0.26080961890467   -2.51871993660997
H           0.59781766836308    0.36571722630170   -1.78192450967439
H           0.24012919729966    0.88195264849862   -3.19914801555453
O          -2.34636209827921   -1.47768207846724    0.26326000871635
H          -2.15629800132542   -2.28180867700672   -0.22398487245416
H          -1.53534789918174   -1.25830251398552    0.76417670371710
O           2.75208383689539   -1.02201276804196    1.28424077591036
H           1.94619300678384   -1.52455074848887    1.45220013923504
H           2.78378870633543   -0.35298438351070    1.98100515645889
O          -2.09508559936189    0.84849034508866   -0.94080869982203
H          -1.25807793042379    1.35780612868450   -0.00015827989498
H          -1.47828268232196    0.60811647791832   -1.66976749829758
H          -2.39222145624155   -0.00649948373953   -0.53658020542829
