    19
        -40.92174061
S           0.23996415273110    0.63809520703816   -0.57992160758140
O          -1.23294486943236    0.30588902887417   -0.42765573709928
O           0.71359408529002    1.35136323739319    0.58741246099448
O           0.99143283827648   -0.53855608859266   -0.90510110794092
O           0.26836192680530    1.59796677671282   -1.78904531386187
H          -0.01235217788588    2.48286636939096   -1.43906087248080
O          -0.09892746193385   -2.99932168974226   -0.89135999431902
H           0.42830435605528   -2.18293587877612   -0.98157519741121
H          -0.45304431678736   -3.19159994513500   -1.76114199203710
O          -0.19563830417882    3.67359274674322   -0.30050700767000
H           0.08488849580078    3.00841302822753    0.35501569807177
H           0.46801975662095    4.36798487289756   -0.29553110398334
O           0.90946491462196   -0.93812125991330    2.01811878061556
H           0.92725655793337   -0.02048478127498    1.69997500755227
H           1.56030860520144   -1.41029830586888    1.49220882478991
O          -1.42702057709437   -1.69532199837192    1.00790718432895
H          -1.40778369469181   -0.55443014501158    0.21469550045105
H          -1.09465891719702   -2.38010152560652    0.38256604874482
H          -0.66922536013373   -1.51499965898415    1.61300044883453
