    19
        -40.91898054
S          -1.50924205001052    0.58957168340866    0.21051459571750
O          -0.68684166568425    1.00145656907779   -0.94036835864289
O          -2.53801682031738   -0.34714460801654   -0.15734147746621
O          -0.65514364307745    0.14048646135450    1.29879249026754
O          -2.22354009359422    1.90808465132714    0.71816106627594
H          -3.04508203126992    1.95031357951071    0.23598000436652
O           2.69811860943266   -0.35786505165910   -0.18761438552557
H           2.87522626049878   -0.94141678929652    0.55308997620285
H           2.34820996631329    0.49411780363621    0.20133280370867
O          -0.70860528119029   -2.26292329772972    0.18352119185084
H          -0.55182902566484   -1.62643063538849    0.90639767348607
H          -1.61579947829538   -2.04428706204534   -0.08858439900531
O           1.42157643551818    1.69639759451824    0.79153772128155
H           0.67590020097168    1.18611420572561    1.17036595388541
H           1.03708854136589    2.16436758268551    0.04401971846377
O           0.65898507278380   -0.99368607655412   -1.53348886368707
H           0.09454515128215   -0.10748463688123   -1.41876539538369
H           1.56773116023757   -0.78661852057120   -1.06268829392708
H           0.15671867070292   -1.66305344312043   -0.92486202186695
