    19
        -40.91328322
S          -0.57013668929218   -0.76685162128065    1.47217387831475
O           0.78944520196808   -1.17130324406225    0.92811508161097
O          -0.71873973610556    0.66182996960867    1.37749766423624
O          -1.58991343583524   -1.57439548473220    0.89918236102679
O          -0.49215827192683   -1.11156522306420    3.00836471196536
H          -0.19444561161346   -0.33069991586344    3.47071404808279
O           1.79047962870948    1.22261645600780   -1.72737624616394
H           1.97183959196696    0.41741125978539   -2.21542663713663
H           0.80474985178558    1.31730837670110   -1.71051031636391
O          -0.82742248668858    1.17457455286874   -1.35189049945561
H          -0.94575701664933    1.15571325925897   -0.39189079603589
H          -1.11513851096020    0.29813474589592   -1.67182201291899
O          -1.54092566960750   -1.40991850503368   -1.79917348988328
H          -1.56401557124892   -1.62126563576862   -0.84931224241068
H          -2.39964122575193   -1.65271709552030   -2.15138548185143
O           1.95975461694785    1.00890989648406    0.85111121392189
H           1.39254449513912   -0.29823636933618    0.90193880000302
H           2.06404087124931    1.14887631531800   -0.13767481494411
H           1.18543996783117    1.53157826266900    1.09736477795882
