    19
        -40.92003353
S          -0.28226180155826   -0.83196204135113    0.03883391895222
O           0.45999643110192   -0.08342236102460    1.02534135905517
O          -0.61451905669495   -0.05262406289255   -1.12695648422347
O           0.50580349912148   -2.08336143575468   -0.35529244270456
O          -1.54369503112353   -1.43695329516397    0.65834205031867
H          -2.16973500620267   -0.70412281246742    0.99752008639528
O           1.82097051138608    0.45882526824570   -2.12032687917904
H           1.86037640178702    0.18794736224202   -3.03987233114541
H           0.88743340419795    0.37192999056683   -1.84666814515917
O          -1.02074298960039    2.13036625826733    0.62900638174934
H          -0.31013176322418    1.52748325011211    0.90948396406014
H          -1.06479559870174    2.03173209088094   -0.32756864177399
O          -2.89531902269358    0.52793055353262    1.54241916785017
H          -2.85744547443545    0.54650024855098    2.50190247116455
H          -2.31619841104042    1.26797098216511    1.22111860892736
O           2.79891337601328   -1.04769231367100   -0.14439598713913
H           1.49994576720370   -1.83869671611041   -0.27817963947020
H           2.68576449871227   -0.44620841498843   -0.91447068533213
H           2.55564024538208   -0.52564256082143    0.62976321741919
