    19
        -40.92174071
S           0.85210143431471   -0.17031745884131    0.21875063447328
O           0.00518864603472   -1.29397912158802   -0.34934377425822
O           1.18127135723206    0.78123978694445   -0.82150229099029
O           0.22278569184941    0.40194832128141    1.37270992824610
O           2.14755002278209   -0.88510416865179    0.66039987750414
H           2.67552991149441   -1.02290895421968   -0.16818320756662
O           3.19871853083544   -0.68801338082772   -1.70517515630975
H           2.47513341375568   -0.03566668856822   -1.74635192568269
H           4.02147863123692   -0.19806971695794   -1.78083322115085
O          -2.26972753438412   -0.26190839457700    2.13976477128641
H          -1.35316517409179    0.05121555531002    2.01894345798710
H          -2.22648361344881   -1.00144310815967    2.74813663832715
O          -1.26346894878191    1.93256911632937   -0.66982844289019
H          -0.34763603786914    1.68770984939618   -0.88207930893967
H          -1.24693280705607    2.24704348518204    0.23795180765493
O          -2.32698084953185   -0.49511069278795   -0.50850742945111
H          -1.03878569726678   -1.01375893608424   -0.47515940960674
H          -2.56325627743564   -0.48210339000470    0.44775669497609
H          -2.14332070970268    0.44665787680377   -0.73744966363762
