    19
        -40.91373476
S          -1.63185417110594   -0.03461139740284    0.34450826785970
O          -1.63811368853887    0.17831707926304    1.85041171528415
O          -1.14873576114674    1.13762683448403   -0.33529897529852
O          -0.99780871569037   -1.26523318761225    0.00276367293014
O          -3.16201370791738   -0.16766020698143    0.01684110557146
H          -3.57361226565903    0.68551141628158    0.14509177825825
O           0.03810592901900   -0.31755478963810   -2.35977936917807
H          -0.35726362590646    0.45984419412485   -1.94260869775351
H          -0.26512451137485   -1.05561812710962   -1.81552423056768
O           1.41507226166767    1.03156093914671    0.75966642008256
H           0.58543679954589    1.31831325401108    0.35518561248992
H           1.94899025545052    0.63686864288243    0.03420632810913
O           2.54545616578884   -0.07909279190264   -1.40726601486710
H           3.08787645936672    0.44563817552893   -1.99789727751878
H           1.69686931481042   -0.24071768648015   -1.87537573387084
O           0.56955578326067   -0.81096307469791    2.36265730366365
H          -0.73257138426985   -0.24459358286126    2.21900177855434
H           0.54777391840385   -1.57834726609313    1.78009406041120
H           1.07196096429653   -0.09928841494529    1.86332226582862
