    19
        -40.91469043
S           1.18130556838818    0.12271958447846    0.70200547091091
O           0.53374326455660   -1.16801036032540    0.68971360284870
O           0.51221979864380    1.00482097752282   -0.38633166014817
O           1.18110459580619    0.82115586821279    1.93903370059171
O           2.61954558455113   -0.04469739584115    0.16740586844631
H           2.56239700808150   -0.70933618820689   -0.56874797503406
O           1.90626720803728   -1.95883486193366   -1.43197321122582
H           1.16458159240955   -1.95034211541642   -0.79911808422212
H           2.33026609064165   -2.81717015835703   -1.35423692166225
O          -2.07475183956484   -0.31025878403253    0.99148221008132
H          -1.25475919073300   -0.81358567081483    1.10219474607249
H          -2.26383192249596   -0.35815532057680    0.03733892983135
O          -1.77980044262608   -0.00178990598372   -1.72718344832374
H          -2.19259425434754    0.74519814202506   -2.16494741359587
H          -0.86977195748691    0.25874728043835   -1.53167265132212
O          -1.13397035831544    2.12907499424534    1.11403506564803
H          -0.56961937700872    2.14698758350399    1.89623034970005
H          -0.17092245075873    1.60419306831303    0.13362865429816
H          -1.68140890779807    1.29928328274445    1.19114275711178
