    19
        -40.91984728
S          -0.16163400054240    1.02236311433779   -0.33578901938677
O           1.16077085969875    0.47259771006549   -0.69603101999531
O          -1.20901204173038    0.06760614128314   -0.71508001101436
O          -0.22261986741110    1.38308813028754    1.05748161533200
O          -0.36405552562823    2.30729743228737   -1.18177791214406
H          -0.54096724466126    1.97798363199461   -2.08982611690079
O           1.26441710856966    0.25167316232213    2.87466314700059
H           0.73972397061353    0.83689794123288    2.27467749886809
H           0.64722914075391   -0.06905104219981    3.53613273338556
O          -0.66633891195420   -2.11895756799270    0.59919758948322
H          -0.86392205146891   -2.84380112370033    0.00216052619964
H          -0.98301244010285   -1.29585309299415    0.14735520281853
O          -1.22255156145820    0.87478139265576   -3.21516742166783
H          -2.10796746742888    1.10417934870490   -3.50690886682223
H          -1.32417053137430    0.32925023524146   -2.40956445327220
O           1.73100018248752   -1.28231227429755    0.90348947239879
H           0.84477610011352   -1.77700435526539    0.84281577963196
H           1.59066536811436   -0.49444667115764    0.13380446740306
H           1.68766893335338   -0.74629211280636    1.77836676866249
