    19
        -40.91413645
S          -0.90767771484058    0.20679968919524   -0.58671289628807
O          -1.01012829097612   -1.21666301009545   -0.79741910844642
O          -0.25936356419221    0.43184303458856    0.80365540693531
O          -0.19447516979791    0.94006714217623   -1.57637189373567
O          -2.31555732743041    0.80927348462188   -0.40833731417201
H          -2.86813253787977    0.11425965957524    0.03920164815000
O          -3.32195610353078   -1.41575561883426    0.45921880970747
H          -2.48077075184630   -1.70731074458237    0.05847063220277
H          -4.03010838823722   -1.79682318174339   -0.06601991862235
O           2.07576102328302    2.08000413994237    1.06003485648302
H           1.14475073787279    1.82448822838486    1.05028870565405
H           2.44289561251616    1.75224847874310    1.88367601041267
O           2.47028684860327    0.44499842449174   -1.11641699868689
H           2.61217723256268    1.17085763324709   -0.48270367494797
H           1.64201897697095    0.67268189870224   -1.56789221791909
O           1.49774743856750   -1.31692829656522    0.52399144012028
H           2.04194064265240   -0.76700622383683   -0.11575145247174
H           0.48165963007192   -0.30322707011255    0.85393067362532
H           0.97893169557812   -1.92380767794068   -0.01484268798301
