    19
        -40.91617161
S           1.42768714432470    0.05002869671575   -0.79376838169005
O           0.93926562598348   -1.14340290580543   -0.14002220785104
O           0.34894185571683    1.15844074488527   -0.61681684580412
O           2.68592700542767    0.54050430311144   -0.37125437882811
O           1.43889986479665   -0.18248317829255   -2.32332879271138
H           0.51565556636612   -0.41282236625406   -2.59965299744070
O          -1.14575513173073   -0.48832072738594   -2.72712795790849
H          -1.49930148839750    0.30046319925976   -3.14542879721380
H          -1.57741615321244   -0.56510588787397   -1.86261012762227
O          -1.30087894022443    0.51929132723235    2.49365378043493
H          -1.53695024177112    0.08779765783315    3.31649448610932
H          -0.32237538923599    0.53306085082189    2.46430939929768
O           1.37703991534972    0.17302492387021    2.19617486906850
H           1.32999580556547   -0.54388383169731    1.54712135225820
H           2.05671456812264    0.76473959845323    1.86203881363013
O          -1.60015516709277   -0.39295589328871    0.02848921175268
H          -1.73015791606120   -0.05923308260068    0.94783331915284
H          -0.51996553626533    0.71312333747925   -0.37679677998795
H          -0.88717136766819   -1.05226676645916    0.10069203534447
