    19
        -40.91314391
S           1.66473337106419   -0.57645396319006    0.29808215686566
O           0.95170056862788   -1.88228783221619   -0.10192146345001
O           2.05265646335301    0.14984638277501   -0.87134961261985
O           0.91152612964948    0.12345171773358    1.28342777246351
O           2.95992637949593   -1.14509868380539    0.97133372205716
H           3.53970820751855   -1.39873850308611    0.25662306463696
O          -0.95961825752955    2.37716679094599    0.50787851332883
H          -0.11808092653924    2.24087766492650    0.95266699226573
H          -0.79835260457643    2.13832629191034   -0.42868076688530
O          -1.86403373110235    0.06450503428289    1.39672928389344
H          -1.78055288516627    1.00715886946754    1.10321565950872
H          -1.02272085309532   -0.09742830998000    1.84254262951782
O          -0.29215362846669    1.20075768339578   -1.83474230647500
H          -0.80725239064683    0.38673310957134   -1.80531866092972
H           0.62613591988134    0.94801040215999   -1.65454668028686
O          -1.39087134502217   -1.21771935690018   -0.75696985498983
H          -1.66911200911613   -0.70385108043967    0.08351188844989
H          -0.00224691719975   -1.66132296835193   -0.40439068863537
H          -2.00139147112593   -1.95393322919439   -0.83809166869075
