    19
        -40.91289217
S          -1.02859915849830    1.24022321921364    1.59733961446504
O          -1.05022705967791   -0.13282745429730    2.24527088424170
O          -1.56471195131556    2.21937079306032    2.47015600442121
O           0.24639546174422    1.48156898432004    0.98723220071671
O          -2.06323596034943    1.07988319309473    0.38172699780335
H          -2.90441796550224    1.33418830009036    0.75263780091658
O           2.17502171523552   -0.01223720891807    0.01935123744866
H           1.50089042052239    0.62694791487538    0.34327973709918
H           3.01658861100666    0.28970206108714    0.36503614007487
O          -1.12270514321431   -0.91770188312148   -1.46572488823807
H          -1.56158389340473   -0.13230399751046   -1.12275216372097
H          -0.36760548517509   -0.59864158955322   -2.00301988046467
O           1.22882979708752   -0.15164167710786   -2.56534637189928
H           1.69295724831080   -0.84646583278016   -3.03525844526212
H           1.67584034681891   -0.04453053314458   -1.70652960927790
O           0.10549752430194   -1.70228627732462    0.70746665497206
H          -0.40979720528838   -1.57014714516010   -0.13667628684385
H           0.98244507745568   -1.31766842214532    0.53610102425835
H          -0.55158239005699   -0.84543245464675    1.62970936927984
