    19
        -40.91990171
S           1.16359145604319    0.94371497355969   -0.21159437389061
O          -0.19653429937327    1.18738914477530   -0.66607365230309
O           1.17041252548807   -0.17247939524711    0.76124755035888
O           2.10338986745145    0.74462924432615   -1.27555327692132
O           1.59756448182536    2.21925126135744    0.60895131658002
H           0.81964983314742    2.48281797043950    1.09589792664976
O           0.43693122442595   -0.82646660795973   -2.57165444615727
H          -0.23287165999852   -0.18036788406983   -2.81467154651622
H           1.19644717606043   -0.29321337624935   -2.24156410162180
O          -2.10838567683082   -0.34911236115440    0.23356966286752
H          -1.60859792057810    0.38243597053449   -0.19860809859109
H          -1.95967057986432   -0.18459944625521    1.18560959023727
O          -0.77274312681877    0.28919204889810    2.49170787258532
H          -0.62340440754270   -0.15758072776335    3.32653686093060
H           0.02747648741120    0.13368436202968    1.94558612707386
O          -0.25248329623910   -1.88903299266838   -0.37004904563768
H          -0.02577946490517   -1.62513413371094   -1.34105345173007
H           0.43382233766051   -1.33518713077278    0.16845286135419
H          -1.16881494882234   -1.36994094894909   -0.12673779362831
