    19
        -40.91893427
S          -0.07609860284515    0.14827015713498   -1.72754453969845
O           0.83919210923851   -0.83321309320110   -1.12576464878683
O          -1.33086932076742   -0.44575005880354   -2.11398355298352
O          -0.18590102771079    1.33343630106985   -0.89984607181600
O           0.63033742696337    0.61855928855757   -3.06885848311446
H           0.34367193249323   -0.03342243771953   -3.70124479089789
O          -2.16229078786295   -0.14782999832489    0.37246153594025
H          -1.94056995029698    0.78721379969188    0.41462681173758
H          -2.01060265539174   -0.38771063759871   -0.56442252438805
O           1.24525891023989    1.86483546380037    1.19286213257862
H           1.98644978870545    2.41028880386763    0.92314030036661
H           0.65557380593560    1.78332130851704    0.39903727034321
O          -0.71823044654657   -1.52985117898112    2.06913298390384
H          -1.33725299723514   -1.00417959024760    1.49395701433983
H          -0.87010372898744   -2.45157198339568    1.85129257558493
O           1.50490932711677   -0.65964141005949    1.23644436957948
H           1.29300068206149   -0.77088246427062    0.19336613106933
H           1.48261602403223    0.35645157094943    1.37046710509389
H           0.65090950082915   -1.03832384096031    1.68487637112657
