    19
        -40.92135414
S           1.40031730222581   -0.16164252890879   -0.67097133160595
O           1.71176050688543    0.98285048829557    0.18627067897535
O           1.43213744544865   -1.41029930325127    0.05832575736183
O           0.16082668668473    0.04341010673789   -1.40382898372701
O           2.54201408536592   -0.22554789380770   -1.75850666488825
H           3.30895961136873   -0.46335151000391   -1.24672894564773
O          -1.42751434402534    1.94745011104821   -0.48155997207996
H          -0.91743258502017    1.25827257572626   -0.96478416928607
H          -1.18813219544651    2.78955613655519   -0.87294678824132
O          -0.57725674971519   -1.16623320942415    1.72204994652056
H           0.26809568313187   -1.40353485506717    1.27267363754031
H          -1.25811111111247   -1.37542470957376    1.03874005552683
O          -1.77303814080700   -1.63914133650144   -0.58697026266868
H          -1.59815561180068   -2.52083968829613   -0.92050582525161
H          -1.12487454798209   -1.04994436801317   -1.02007356995037
O          -0.25272265984727    1.28704596297076    1.68558416708864
H          -0.48011292699000    0.22657467211426    1.81952039531125
H           0.65441677138297    1.24842152019190    1.18065611979846
H          -0.88117723972187    1.63237779923294    0.96305577528965
