    19
        -40.92174074
S           0.22367098714647    0.83597232497200    0.23685023303272
O          -1.08940322642381    1.19639074373071   -0.25478925851269
O           0.10472590966158   -0.22485527017384    1.31565708905547
O           1.14729821689264    0.42192170125909   -0.77820385838621
O           0.81794291822485    2.04679113607463    0.98845947991094
H           0.05982100710138    2.45782283840937    1.47889442501388
O          -1.21888745234116   -1.01828120298683   -1.80574408450909
H          -0.47151987450120   -0.86161942779530   -2.38892421840786
H          -1.37906597228639   -0.17647711909579   -1.34821461298656
O           2.20828839296987   -2.05078950217307   -0.84754776586206
H           3.02425217835009   -2.05741309311902   -0.34442916134020
H           1.94716512037118   -1.11478463345339   -0.93903078510585
O          -1.52402768513727    2.86078643013850    1.75802122230054
H          -1.74720390661043    2.24550177754299    1.03525075916752
H          -1.80146576327453    3.73601318792358    1.47566177201404
O          -0.20320654539922   -2.41424904807141    0.21266962046756
H           0.70330291276948   -2.54587667935722   -0.14980512674554
H          -0.05848527772466   -1.22134224339607    0.91187558210861
H          -0.74320193978180   -2.11551194045761   -0.55665132121332
