    19
        -40.92079103
S           0.23588718157312   -1.46357693243384    0.09763423610158
O          -1.15375173879973   -1.06170061257418    0.32384851006205
O           0.44905449735307   -1.99607599521845   -1.22342834312373
O           1.15635598445629   -0.39786426984606    0.46917496263296
O           0.52322926186526   -2.63166482322506    1.12625978300767
H           0.00480194658455   -3.35523287990071    0.78828105949439
O          -1.39131815147135    1.35551103415535    0.80189398770689
H          -1.44611179429868    0.32169082387303    0.60527421179711
H          -0.80725588118300    1.37991145898038    1.63199036363009
O          -0.38910289075739   -0.01730456830674   -2.76139626454211
H          -0.01224605628574   -0.14156131629367   -3.63452388045356
H          -0.14427836073334   -0.81370923977623   -2.24199782494957
O           0.44699179337302    1.02924922068689    2.55210779814597
H           1.12933987852948    1.68418703391770    2.71267878169073
H           0.82300981996183    0.38345927086426    1.90821688343919
O           0.36039859481388    1.72597983387091   -0.93208092554246
H           0.03251225305840    1.27149238804738   -1.74334009760888
H          -0.74147625481670    1.67411970208681    0.01857505078021
H           0.92395991666935    1.05308986142982   -0.49916830233805
