    19
        -40.91774956
S           0.52679794526816   -0.61493618401393    0.59296380400705
O          -0.87290356751298   -0.72354354210952    0.89120567290410
O           0.69634012387021    0.16466978291835   -0.74719662631523
O           1.32853370033299   -0.00979564632765    1.61163878160871
O           1.11178996859746   -1.97557647931619    0.21866985353114
H           0.67946899220071   -2.23981966191168   -0.66813597308771
O          -2.39899931466924   -1.60889653171640   -1.07012177152595
H          -3.02324237666598   -2.23486523061334   -0.69831136706011
H          -1.95420821382043   -1.18110599998735   -0.30632608487467
O          -0.05207469834186   -2.35075360633899   -2.00371355105463
H          -0.99832056018167   -2.16718841656077   -1.77250246706491
H           0.25218434957696   -1.57929871215566   -2.48983045967317
O           0.68448651558362    2.47750656528686    2.30475711744083
H           0.87846038057394    1.52322994991403    2.20941696243703
H           1.40676447100890    2.84744960052034    2.81623648416743
O           0.17967424596905    2.63801829839732   -0.29903054526636
H           0.86839296132920    3.20343525367030   -0.65666037444291
H           0.44274525352204    1.13159544979085   -0.61538714222127
H           0.24410983336088    2.69987514055097    0.68232767649431
