    19
        -40.90997410
S          -1.52776039913255    0.20195339323109    0.13006739583750
O          -2.04596412610968    1.41640717059578    0.68495536025715
O          -0.74827230479838    0.47937955878663   -1.14676187835051
O          -0.76538302854702   -0.62044935692658    1.02124027397882
O          -2.72847745433314   -0.65132025924530   -0.39868654319629
H          -3.32253548066983   -0.05565525224493   -0.85035946122005
O           0.34882883668169    1.90179530613492    1.80977123084940
H           0.35616028306558    1.16815284274454    2.42990947482412
H          -0.57380548384103    1.98489678591437    1.51421591298754
O           1.70038349041143   -1.38325236374609    0.35162074827081
H           0.78358848419794   -1.24228860052446    0.66314794844003
H           2.05282084902943   -2.12684240292395    0.84314914826149
O           0.49262775095073   -1.95707251366315   -2.20535960297338
H           1.08867297870876   -1.88241507606197   -1.45015815582193
H          -0.05355400985482   -1.16694931796492   -2.18836378296736
O           1.50544070142376    1.18307602541248   -0.45252316343382
H           1.90541933832902    0.31813090481233   -0.24208192499882
H           0.26873214447023    0.83318477336923   -0.92580428238128
H           1.26307742837406    1.59926839181539    0.41202131389867
