    19
        -40.91596455
S          -0.42972140716866    1.67949218319529   -0.16710208895881
O           0.50207158559964    1.84972914846249    0.92214978643617
O           0.04901344314177    0.72975317857030   -1.18071908204912
O          -1.77811033134546    1.36429291279287    0.26429221101516
O          -0.49632592262809    3.06710562392235   -0.93126067133612
H          -0.60616031677734    3.68862237686007   -0.21849784900398
O           1.59633949212762   -2.07566740489844    0.59020950400461
H           2.24851097234588   -2.69071935809629    0.24965833338442
H           1.99646274615454   -1.15948639755810    0.50702390589182
O           2.45586999593966    0.32393265744375    0.07597399101275
H           2.15787168694752    0.44039556545168   -0.83325143701681
H           1.86760426953950    0.92836710240857    0.58010740347722
O          -2.35977663674626   -1.06844486922255    0.85209042611861
H          -2.17866556255960   -0.09219099867646    0.75351487879460
H          -3.26787056967477   -1.19856657504950    0.57047127375553
O          -0.50112303772198   -1.65087818744126   -0.74489287581523
H           0.33170810992001   -1.92745016048943   -0.18521696962742
H          -1.29181304250145   -1.55229283329040   -0.08003251731823
H          -0.29588545459908   -0.65599396438805   -1.02451822274706
