    19
        -40.90789772
S          -0.99824850019330    1.59128463041306   -0.40015418897912
O          -0.20474567086343    1.48731384131624   -1.59012142168920
O          -2.09142919437512    0.51335699609978   -0.41113435084479
O          -0.28985634081256    1.61574390321472    0.83466006133772
O          -1.86147024971643    2.89255621594197   -0.49944339129618
H          -2.16545718466618    2.95350561106587   -1.40264362914770
O           0.54807960111150   -2.07418504536560    2.13568371734535
H          -0.12587801851957   -2.09483394991392    1.45017392807807
H           1.15502979663386   -1.36702320594966    1.88189789533786
O           1.98653636468293    0.21109460135546    1.14932311143656
H           1.18298257694311    0.76425837428970    1.13444080908579
H           2.59440559729864    0.62293900270303    1.76568616105121
O           1.31041384058946   -0.74985974361477   -1.32905153366198
H           1.82437853634833   -0.54360466925905   -0.53121414829945
H           0.94281037257100    0.09807360288623   -1.63038816587980
O          -0.89258867981754   -1.70500010047142   -0.40638903864291
H           0.01166772888731   -1.44594534377335   -0.77883824204324
H          -1.66123790012971   -0.41678050185881   -0.36393239664807
H          -1.26539266598754   -2.35289419906107   -1.00855517657563
