    19
        -40.92158990
S           1.38952995191279    0.43710895655471    0.23958195128361
O           0.66916507671952    0.91632843458077   -0.94735355902160
O           1.63373246191409    1.48560606002065    1.19229553352902
O           0.74955855026100   -0.75256129798997    0.78068721548681
O           2.80341090632445   -0.05853437727823   -0.27697304715695
H           3.33303002324884    0.73254281276494   -0.30271540396427
O           0.04781598805991   -2.55431740624513   -0.98474444805808
H           0.49523917426761   -1.99608514428871   -0.30590046150201
H          -0.29714847751037   -3.32254513984185   -0.52521281067990
O          -0.90522436831305    2.27571778542088    1.05168674207031
H           0.03252855900405    2.09598930955674    1.25986538324153
H          -0.89763321122276    2.69542966085689    0.18825532886382
O          -1.85028228482632   -0.18979945564427    0.98354928572083
H          -0.97122403873117   -0.54676670937302    1.21922133385503
H          -1.74820802546643    0.78087329568071    1.12829104083710
O          -1.33653197136220   -0.45240066507365   -1.43861418461542
H          -0.91340158535619   -1.37540604063751   -1.44619431769988
H          -1.73793704349238   -0.35207731146329   -0.44979178989873
H          -0.49641969543356    0.18089726239359   -1.36593377229879
