    19
        -40.92174068
S          -0.60063589775604    0.06927564120147    0.66084848377481
O           0.45301098722653    0.75207281864016    1.38161349561910
O          -0.87744587385023    0.77540392971530   -0.65364753695069
O          -0.36532153305995   -1.32794438449876    0.44318443593825
O          -1.92126952507689    0.23677677697993    1.44312020610872
H          -1.90612239209196    1.16098809050820    1.80396631320696
O          -1.21380799530943    2.55581636092537    2.36998584267564
H          -0.36354054070654    2.18875423535158    2.06473114659271
H          -1.15207503446452    2.64724655794899    3.32418026615837
O          -0.12973682080144   -2.38950526371461   -2.01867119097944
H          -0.23034912829981   -2.16964198119338   -1.07302785265324
H          -0.99457543980599   -2.66478287452842   -2.32726665538511
O           2.36795740561165   -0.38431739921434   -0.15749234233191
H           1.86458140374683    0.11548412821635    0.50613921562545
H           2.22189053930600   -1.31175185214234    0.04667297203153
O           0.84181173144442    0.07198080558684   -2.28276066903801
H           0.54696696463686   -0.85379533679269   -2.44519260162518
H          -0.14647657395005    0.53761638788160   -1.42286530096956
H           1.60513773289462   -0.00967666136051   -1.66351824776905
