    19
        -40.90224942
S          -0.65079234639201   -0.94884287259362    2.08304464927243
O           0.61971541371104   -0.34003607893340    1.81136325807011
O          -1.77440550372319    0.09030563373491    1.88594867381447
O          -0.96478936813750   -2.15268305942810    1.39811970888746
O          -0.72974012312704   -1.20466364924530    3.63176965300383
H          -0.33021416448578   -0.45567905733126    4.07148419984694
O           0.19000579105736    0.02473769815685   -0.83021694921734
H           0.35620891595133    0.97880865778567   -0.98894324653867
H           0.49839870199273   -0.14676067600588    0.07578234552029
O           2.29795558975820    0.15634196791003   -2.67566880139215
H           2.05730214460450   -0.13688301374024   -3.55571183293280
H           1.64002487727549   -0.22165640467249   -2.06831735535483
O           1.31754312885264    2.41827590371786   -1.44231937028311
H           1.84102135777392    1.84830692059640   -2.03432940771280
H           1.91549436104563    2.71006022230793   -0.75190523345024
O          -2.35704740026000   -0.61729404983423   -0.46005956865018
H          -1.47666690196494   -0.35310396024722   -0.82024061311784
H          -2.28584954094784   -1.56237530578520   -0.28172684647398
H          -2.16416493296846   -0.08685888667199    0.95192674645818
