    19
        -40.90679299
S           1.27820496928839    1.73998337862791    1.16269684163729
O           1.02188738111180    1.53656457118766   -0.33442967242789
O           0.88400083951493    3.03768547848253    1.59143402713833
O           0.77820079525918    0.61653516988350    1.90172165785452
O           2.85342522291860    1.66836120611080    1.20269275977333
H           3.14113153601835    2.55576917200090    1.00256279449341
O          -0.53278877878466   -0.90042434973420   -2.60767390570703
H          -0.41528580460258   -1.63793767117960   -1.97168140853532
H           0.34856393179333   -0.63156573534891   -2.87281866048885
O          -0.33458028113078   -2.70209378755374   -0.60445165241053
H          -0.60664541016739   -2.13615836451680    0.13980566585157
H          -0.93176054185730   -3.45184964789525   -0.61354727014276
O          -1.24439077173410   -0.92620634870700    1.30075996104559
H          -0.44350432157754   -0.41960827642359    1.57176214142879
H          -1.77936449285457   -1.01441664744677    2.09162050766943
O          -1.32869649562431    0.84807945365704   -0.79088769617659
H           0.01076944653649    1.31218861721571   -0.53033201287999
H          -1.17610129636701    0.26937016433209   -1.58127268659898
H          -1.52306592774011    0.23572362733247   -0.05796139152093
