    19
        -40.92079114
S          -0.94926692980161   -1.05225509804607    0.44535028583076
O          -0.06958917778817   -0.54871403079015    1.50193659250859
O          -1.17507316534570   -0.03845920271290   -0.57552229907538
O          -0.51941240813429   -2.32626852190094   -0.07071272693142
O          -2.36174363528941   -1.27351164067705    1.12414272943720
H          -2.21869077269809   -2.02500137503967    1.69096649490095
O           1.25909110605846    0.68410424483120   -1.38758289015260
H           0.31217372783079    0.43677521044929   -1.38685132054606
H           1.72703295169609   -0.17730391706957   -1.28172266235024
O          -1.33569529095809    2.42763432266797    0.30264569683790
H          -1.50373850881376    3.00242090217903   -0.44678709878870
H          -1.48236507166019    1.50454827318438   -0.01266895822320
O           1.95087171328072   -1.80178551270956   -0.84988258090714
H           1.07358853937975   -2.07426202564427   -0.50345734822860
H           2.21260720534877   -2.47908454797629   -1.47649030480460
O           1.00777407433566    1.60156021835551    0.91614545288069
H           0.15731138859991    2.13995101722218    0.78536222896932
H           0.63343234464190    0.69290608492753    1.29679163458842
H           1.28169188934640    1.30674558873592   -0.07166293585521
