    19
        -40.90978681
S           0.40694408824196    1.92035036038352    0.53642688728421
O           0.99986967303235    3.05952840422887    1.13411813406239
O          -0.18452924271539    0.91864758175855    1.37609255202818
O          -0.56415989209372    2.30325462547268   -0.57058315081284
O           1.57166465908183    1.17917936460834   -0.27952391133849
H           2.22836638240747    1.85257927786984   -0.44161069245965
O          -1.23239730060986   -1.60344407537961   -1.60041595627038
H          -1.21287555964868   -1.68880152354756   -2.55419733578380
H          -0.29667435101522   -1.69720078419132   -1.28988694387512
O           0.90475893001246   -1.50601380339556    1.94807537878249
H           0.55275766993316   -0.60440910885216    1.84681665411319
H           0.28955695904589   -1.97935491460753    2.51058625814713
O           1.26827349894286   -1.64019172134022   -0.73586356957752
H           1.55636005225898   -0.72227789144410   -0.78073862498257
H           1.22375943052812   -1.83294420691043    0.22005235566521
O          -2.24066080411539    0.48258273017175   -0.37710493292335
H          -1.32328323413233    1.57455779836839   -0.58531793242552
H          -1.93782184380968   -0.31013005217294   -0.89771609268796
H          -2.00990910538722    0.29408794895642    0.54079091297459
