    19
        -40.90817067
S           0.15908158609035    0.21333764934321    0.51192073885956
O           0.23198540998802   -1.20897508895424    0.37683603270555
O           0.66415853429862    0.83276561352044   -0.83261897167683
O          -1.12588165607716    0.75277055521412    0.83722275048367
O           1.19280360130731    0.76312882480214    1.50803054787342
H           2.09824076606201    0.59971592899565    1.13957615862329
O          -0.86287228868955   -1.13721099722740    2.98494938233311
H          -1.27875471473275   -0.34820812293426    2.62919146108276
H          -0.47031724597201   -1.58861906853151    2.23220839501751
O           3.31182112542480    0.58828387625240    0.00319818975916
H           3.87976955802903    1.36295669539691    0.03398096427756
H           2.69943542156600    0.70494267067199   -0.73517539133591
O          -2.77362850737605    0.05962252679851   -1.18913875562583
H          -2.32876685852280    0.30685309719193   -0.35797873679671
H          -3.32335850601746    0.80545449505571   -1.43775819463045
O          -0.52826480558760   -0.81733044121920   -2.30633506456263
H          -0.32501462290859   -1.56797059495951   -1.73435008188192
H          -1.45774122612986   -0.56962296007703   -2.09395185799873
H           0.23730441890872    0.24810535995371   -1.56980756660142
