    19
        -40.91857452
S           0.65921853316343    0.62292733412598    0.62608101437240
O           0.32444907716350    0.86440153316118   -0.76219745886585
O          -0.61001345129508    0.68770666098923    1.47766329839079
O           1.37978537231729   -0.58462278719992    0.86660864095651
O           1.47219639080161    1.82437537046012    1.14973099841121
H           1.02184048221307    2.62389274935936    0.77511580924179
O          -0.07782780721770   -2.74712502398327    0.06632041332721
H           0.63029368648935   -2.20899201281019    0.45576009074231
H          -0.08277404549700   -2.49450911901600   -0.87855426792921
O           0.11900497896633    3.47099770570580   -0.33261452897051
H          -0.06611079111632    2.61480210373549   -0.75983287579604
H           0.59426105776236    4.00763734456835   -0.97196500620165
O           0.19819068050484   -1.40601847147760   -2.26704118512252
H           1.06627331894737   -1.47072958271136   -2.66937041605236
H           0.17137949688045   -0.54641986847881   -1.81121335099770
O          -1.99972302318267   -1.36998012520763    1.10374300788510
H          -2.22943363229474   -1.76620897957616    1.94754579793358
H          -1.23114096254664   -0.12829037619727    1.31841118610204
H          -1.33986937206258   -1.99384445545059    0.66580884257509
