    19
        -40.92246919
S           0.60721893953949    0.74990365677149   -0.46380623071278
O           0.59109427188494    0.33528173119384    1.00512259402427
O           1.29952699787303   -0.26026027234422   -1.22986322909379
O          -0.71590781705146    1.05675478146247   -0.91669153971613
O           1.44961472314786    2.04397799353429   -0.44022953879312
H           2.35298637111037    1.73508483872632   -0.17820796145669
O           3.43477922829986    0.49974147391914    0.21990737254356
H           3.21658618335813    0.16553068166730    1.09449435235716
H           2.98502178208241   -0.07957835483499   -0.41658458533029
O          -2.94272055546943    0.57777838430176    0.51153321377298
H          -3.18697505020255    1.36731874736140    0.99731156518335
H          -2.24447716007592    0.84360613854497   -0.11668230152530
O          -0.81428692828555   -1.93903419336691   -1.20442273153396
H           0.03607007041952   -1.49071901539987   -1.35240575446322
H          -1.45936300170443   -1.46064974592293   -1.73124882220792
O          -1.23950115233675   -1.28195500971460    1.32519159423261
H          -1.14512091340421   -1.76782934660805    0.46995054777991
H          -0.19958838117765   -0.39689020318649    1.22841028488398
H          -2.02495760798861   -0.69806228607576    1.19822119005953
