    19
        -40.91855613
S           0.63829686095517   -0.06941520086863   -0.97388339031016
O          -0.69899007605523   -0.49349875453828   -1.58403465160032
O           0.40582034249671    1.01262200903479   -0.03705408047720
O           1.35374460706235   -1.18020626314668   -0.43949326548179
O           1.39791832590692    0.49157829216542   -2.19303667013979
H           0.99573434035735    1.37988356181723   -2.37057260917800
O           0.23817138828375    2.80572071045375   -1.96901912173544
H           0.80811286415067    3.57008268658203   -1.85339915695987
H           0.10885411233499    2.41020507929087   -1.08662028836658
O          -0.84107785909013   -0.14795755918137    2.10328650523854
H          -0.36899144743358    0.44815292171625    1.49980999961848
H          -0.18274727159712   -0.82343153852389    2.36010170764670
O           1.20578686046670   -1.91377180310902    2.17505094691404
H           1.29870048676413   -1.80633468377335    1.21216977405371
H           2.08229814955908   -1.79621089806735    2.54504976700705
O          -2.23740584356785   -1.27589004382238    0.24245924878343
H          -3.08404273799078   -0.82703686595673    0.18355794099247
H          -1.34666044632635   -0.87508121728119   -0.87127176445687
H          -1.77352265632145   -0.90941044281466    1.05689908846219
