    19
        -40.91103765
S           0.93001420261793    1.13276251528823    0.43202877477207
O          -0.23294631966932    1.33329594684954   -0.45888114822269
O           0.55570731092423    1.38629773910538    1.80874303866833
O           1.53709539413534   -0.15659967760717    0.22121892886186
O           1.97587390346196    2.22455911286108    0.01033018153177
H           1.52887918789855    3.05144808500079    0.16559205991147
O           0.37118592408324    0.18670989009066   -2.95482835071542
H           0.20750554436866    0.72486093291494   -2.17025559335825
H           0.44495829426310   -0.72193548861127   -2.65335496564494
O          -1.12821927256723   -0.49478167412636    2.33676016755478
H          -1.75609781593722   -0.14916990951511    2.97544939184119
H          -0.41849967416405    0.19835835357520    2.24253252443898
O           0.22745024196037   -2.07661273729413   -0.89607022129756
H           0.44721769366783   -2.90416019300593   -0.46359185155482
H           0.85619990945496   -1.39538799494487   -0.53571649112260
O          -1.69879977324898   -0.62176629959084   -0.11859925051592
H          -1.06264028780834   -1.33571720904426   -0.49896115301758
H          -1.59947685355088   -0.66329389135417    0.90975579439806
H          -1.18540761721437    0.28113248619654   -0.35215182810359
