    19
        -40.91990219
S          -0.65064794433536    1.25074482481725   -0.54610000742223
O           0.18652838597160    1.19982903843438    0.64236344363451
O          -0.50092554273816   -0.00688662934624   -1.31371358902077
O          -2.02292237904369    1.56388543239744   -0.27564296813268
O          -0.05083340155964    2.37982588112771   -1.46997827098277
H           0.89690266975535    2.29208740598715   -1.39287715003966
O           2.09048220415479   -0.48325957651227   -1.50672471322238
H           1.12940080591407   -0.29272409818148   -1.55882908804833
H           2.29900138517279   -1.03859260136902   -2.25971559218939
O          -2.07870054278093   -0.08399029404905    1.77772219594715
H          -2.26748524625041    0.55233894557343    1.05023909887823
H          -1.48916452888462    0.38840895898676    2.37323696341424
O           1.57608483523727   -0.96389262559580    1.10201794960768
H           1.21748344543486   -0.04638323147492    1.13647001853023
H           2.06516406651696   -0.97713300101181    0.25597681239015
O          -0.69209889681373   -1.75629903519500    0.46080398631234
H          -0.70023008808108   -1.16617691470065   -0.38811690191048
H           0.31016263727262   -1.57942727011889    0.82197412585382
H          -1.31820187483067   -1.23235518917247    1.09089369495279
