    19
        -40.91792402
S          -0.33382378454191   -0.11231842913288   -1.65342469523231
O          -0.92156425066047   -1.12578944969057   -0.78987750276489
O          -0.95130348276911    1.19117573293888   -1.48090046800528
O           1.11235671100731   -0.05387799668509   -1.52195767813254
O          -0.64943917614504   -0.56831081918501   -3.13697993816636
H          -0.40870711748038    0.20129680456471   -3.64324658827735
O           1.89980692715267    1.39552577679432    0.43451596394646
H           2.81135544152368    1.13012642341145    0.57677291858417
H           1.60019049027433    0.90654950926258   -0.38692249177580
O          -1.90714811698264    0.82075458594746    0.86647874765008
H          -2.21163613978766   -0.07030634744597    0.65637344761420
H          -1.60145592379564    1.15978092228575   -0.01964898145839
O           0.51621248804054   -1.92998789031299    1.18494557548373
H           0.06106710433470   -2.69026464499020    1.55189559223588
H           0.05304825179030   -1.71161349077874    0.32969240224704
O           0.25699962563926    0.43065066743454    2.06918504395811
H           0.96252924643477    0.91950928390484    1.46969651942908
H          -0.68468291249310    0.67125784687549    1.64477937194754
H           0.39619461846156   -0.56415847519786    1.84862275071693
