    19
        -40.91628508
S           0.46635708695212    0.14996383308979   -1.19148308602032
O           1.42852831165873   -0.14140383231473   -0.15118525352107
O          -0.75574960220536   -0.75243418769673   -0.99355435018845
O           0.06619131717320    1.51516935684888   -1.29900501848705
O           1.04496626146117   -0.29551182300330   -2.55468941530734
H           1.58805386138655   -1.10578931665409   -2.38212563951722
O          -1.63944341439777    2.50574464743219    0.51530847223093
H          -1.26659262556756    3.36107558970906    0.73786770456777
H          -1.09119471458376    2.15842700259331   -0.21446977987223
O          -1.86635530673397    0.64271042434056    2.42301749183659
H          -1.77893790771146    1.35747169669740    1.75272197840494
H          -2.80519029317845    0.46027190125606    2.49277829500889
O           2.56036572923286   -2.11986139074937   -1.48480642763396
H           2.32915645625577   -1.54774485692488   -0.72861004449376
H           3.50583437537437   -2.03083943379163   -1.62668727701504
O          -0.47519398139215   -1.35409906655690    1.41552963785877
H          -0.74142744123068   -1.10464496059995   -0.01477364789758
H           0.43687111967225   -1.03707845420560    1.41401515043988
H          -1.00623922210533   -0.66142711949188    1.89015119962108
