    19
        -40.91893382
S          -0.79241866382391    1.18892879590728    0.98525991268828
O          -0.04871088371778    0.08968525975923    1.61942240613867
O          -0.00423192402019    2.39090009138289    0.88574238405792
O          -1.41096088592844    0.75351980567808   -0.25151353287871
O          -1.98842687698363    1.51691673881632    1.97650138938591
H          -1.59858385504536    2.13719030352165    2.58514361898832
O           2.37969211943063   -0.83647796830287   -0.89290285793450
H           3.12593199471690   -0.60488957675248   -0.33647901059625
H           1.93716482572677    0.02153061913682   -1.13281047734932
O          -1.54559982535955   -1.68801382259022   -1.10667088493153
H          -1.57809608347364   -0.72417391634594   -0.87336776991101
H          -2.38312404469255   -2.06139530514539   -0.82614926452585
O           1.07272756464732    1.39953005726659   -1.31101291425346
H           0.83741921348019    1.89261781566032   -0.49903377092876
H           0.22605006756385    1.22331845650391   -1.73232065674702
O           0.49943278971738   -1.95853698892210    0.37243307210727
H          -0.29286713118499   -2.01047935113875   -0.27579608015146
H           1.30972048546344   -1.61384466743797   -0.17320342623840
H           0.25488111348425   -1.11632633699890    0.98675785307884
