    19
        -40.91373463
S          -1.26730878347109    1.01220883763002   -0.38748821654650
O          -1.28554166919810    0.92200099622897   -1.90575982356915
O          -1.62097155464879   -0.25047137720679    0.20395178588706
O          -0.05696556988254    1.60644258294620    0.07628389174894
O          -2.44346990950858    2.01106216890517   -0.09572602988394
H          -3.26737656865275    1.57915345399368   -0.31575147504992
O           0.04414825382459    0.11120013532006    2.37830148792437
H          -0.70336665299960   -0.26052542771798    1.89095117604049
H           0.27277694927112    0.90892303720052    1.88392867861161
O           0.58763763631234   -1.62609448487734   -0.80291830281481
H          -0.27903622939078   -1.38619984744741   -0.44880357890808
H           1.19554719540591   -1.66496418997711   -0.03076635604701
O           1.98933173147317   -1.52179123651412    1.48414181070777
H           2.07017451086654   -2.29616425051591    2.04300957459016
H           1.36854824075599   -0.91105303842068    1.93916811178664
O           1.11272654594035    0.43855951693511   -2.26637629132709
H          -0.27994368596586    0.74610291704708   -2.21035906215477
H           1.50225407155061    1.03850970351017   -1.62051185895050
H           1.06083548833949   -0.45689948701387   -1.81527554208067
