    19
        -40.92161577
S           0.98500358839060   -0.37396808795939   -0.16505925175480
O           1.47271930840628    0.33952180230443    0.99250435053234
O          -0.22314916806560   -1.21371449789328    0.24956879599730
O           0.67531165998960    0.44751250503001   -1.29589296925230
O           2.01474213968493   -1.44572655181084   -0.57873942584030
H           2.21587611848761   -1.92679784137634    0.26349955832696
O          -1.80028249408952    0.60090261262697   -2.35850461733441
H          -1.85269157398119    1.24395437023164   -3.06739190179924
H          -0.85675347900735    0.50591520977172   -2.13285879583847
O           2.02395673921206   -2.12909344230843    1.92896137239920
H           1.95402641850042   -1.16593032498360    2.02816649410386
H           1.14673933023879   -2.48582445939448    2.09504319593162
O          -0.44599239909579    2.22478918812697    0.72711600680931
H           0.30830889250022    1.69084916785279    1.02817300407294
H          -0.18281382883209    2.57718026930028   -0.12685442900699
O          -2.20174588561492    0.27324434606106    0.26663133160110
H          -2.35161309493459    0.37522888832252   -0.69585574720163
H          -1.13700411078729   -0.63651412345050    0.28690498285868
H          -1.74463817098260    1.09847095953431    0.55458804542494
