    19
        -40.91855626
S           0.81690063105697   -0.82970066116573    0.00473580900241
O           1.25789845950955   -0.11701442806574    1.28476535559594
O          -0.63145535353726   -0.89125471958905   -0.02457164752737
O           1.41491209215821   -0.25619207034573   -1.15493981263834
O           1.36463099225200   -2.25625690507025    0.21210670772282
H           0.75482036450036   -2.68271222675208    0.86689015042092
O           0.19853387359167    1.65540576628541   -2.65893883942643
H           0.77254021682680    1.03196832080010   -2.18021863089799
H           0.04849577943938    1.27299038687939   -3.52513656769968
O          -1.44234290708021    1.67594411142752   -0.50904927572790
H          -1.38450318557969    0.71362667674921   -0.39488706672438
H          -0.99109037098333    1.85913010605559   -1.35656350426153
O          -0.69741813107995   -2.94529034498403    1.63462221178391
H          -1.01656158761997   -2.15789009494546    1.15522685601375
H          -1.21124074896308   -3.69310943632582    1.31980784075868
O           0.32376609065025    2.21624757341024    1.30044600897120
H          -0.13181672469834    2.39131679450218    2.12719823871046
H           0.93976946996365    0.86832503244311    1.30794295072919
H          -0.38583897038258    2.14446611872970    0.59056321523425
