    19
        -40.92279201
S           0.62070351041408    0.81871889065983    0.17645037641982
O          -0.53865560176672    0.70088436942039   -0.84343728891856
O           1.82049283941217    1.00959653505588   -0.57565644293473
O           0.29646131110766    1.78526648130885    1.17763915974671
O           0.64469597008549   -0.56394247101686    0.87360101757875
H           0.92726365849826   -1.26982701050596    0.19569134384350
O           1.39197692955786   -2.20042495646250   -0.92303412522806
H           1.33375662789166   -1.63616455131459   -1.73914498835234
H           2.32220328544573   -2.40988379574117   -0.81053001002652
O           1.29517863942293   -0.36083658868722   -2.79588433777949
H           0.39132285094577   -0.08793374218740   -2.97230674675604
H           1.63493670797772    0.27492417832988   -2.13619496002438
O          -1.27678406272568    0.37967036768263    2.80080688043640
H          -0.64855123857024    1.02247355478943    2.41766874006684
H          -0.79389422401544   -0.44890531588631    2.85400296468308
O          -2.64892074339648    0.55069900089246    0.56674876092533
H          -2.26934539360693    0.40571339270085    1.47374913439701
H          -3.08478583157431    1.40579561102255    0.59481708836841
H          -1.41805522542810    0.62417603030423   -0.33498655663209
