    19
        -40.92453574
S          -0.14796935423083   -1.12370041341438   -1.01887787325785
O          -1.33057774103414   -1.16103655348474   -0.16597184116890
O          -0.07994403668277    0.13357008003274   -1.75531903169202
O           1.07177337803570   -1.40559113716175   -0.29148577252483
O          -0.31088680698424   -2.27851223799322   -2.08398341079585
H          -1.14636942212129   -2.10618876556237   -2.50838455401208
O           2.06719692333807    0.99345669382747   -0.25370225071978
H           1.89918693049649    0.01924991442184   -0.26413300901381
H           1.70686604995174    1.29285678661949   -1.09692797567294
O          -1.54754247008955    1.58192675720465   -0.18636370067893
H          -1.03509875353290    1.15597765835551   -0.92018562644224
H          -2.15885435154073    0.89050115555554    0.09364718410279
O          -0.11400487755971   -0.85432166787022    2.11212203083130
H          -0.71406524183853   -1.06176651880227    1.35290956200602
H           0.68795579863821   -1.34945568249288    1.90813500530855
O           0.33305032505531    1.54713671640946    1.48951827944765
H           0.16992070392764    0.59506028264534    1.89274529754898
H           1.13925000902998    1.42737459407362    0.83256769883573
H          -0.48988705289738    1.70346233765742    0.86368999787021
