    19
        -40.92139811
S          -0.18589681861680    0.65063357327195    1.00533947027169
O          -1.42673206796904    0.33254798545655    0.30113082779921
O           0.62132078863325   -0.55353936430955    1.17770741878514
O           0.55723690507602    1.70735986061134    0.32348245474839
O          -0.55341867660122    1.20471012089127    2.41159496939671
H          -1.04104979896590    0.45852436391541    2.81668795581846
O           2.21717549231625   -1.14994837138560   -0.78231492868873
H           1.89734447535506   -1.99441755024395   -1.10761285889639
H           1.71528039332272   -0.96557451198621    0.05514862894051
O          -1.03212026640991    0.10120843326681   -2.24072392398696
H          -1.26050339255447    0.12937776832028   -1.26970698815656
H          -1.67200699495589    0.66767100101804   -2.67715557408360
O          -1.63294363391666   -1.19324293528636    2.57249238845686
H          -2.09031453497739   -0.95391306172786    1.75594905269321
H          -0.75336897304748   -1.47886432096885    2.28980502320446
O           1.32905514911855    0.93749770987870   -1.88949656263514
H           1.08318919670049    1.40110417117892   -0.96392595377220
H           1.82513878593320    0.08668123906491   -1.57118600318635
H           0.40261396155791    0.61218389903295   -2.20721538671110
