    19
        -40.91413657
S           0.43862339372611    0.99686155131952   -0.17088326990480
O           0.81909385809027    0.98756372469922    1.22062431692247
O           0.46992254409647   -0.46854361682787   -0.67734156746141
O          -0.82028190227818    1.58644818181234   -0.47593849350735
O           1.54382081835812    1.67089108537806   -1.00826256510954
H           2.40722195404543    1.45928042876359   -0.56285230717433
O           3.40402165556407    1.07817947462385    0.69603714485935
H           3.86787770433400    1.81749073444268    1.09694271366790
H           2.58971017032818    0.93646957915892    1.21563598587975
O          -2.72142117637479   -0.25239982180147    0.27423991268756
H          -2.29294225047045    0.59094092484833    0.05795037045093
H          -2.74886733693982   -0.73797063034936   -0.56962310562887
O          -1.83573289216460   -1.61426724773254   -1.94505873359300
H          -1.67475099009338   -2.54881794791104   -1.79916486299810
H          -0.98527640451454   -1.16775866985713   -1.84818172281385
O          -0.66103329545966   -1.42963259511283    1.32858769834916
H           0.07004746741745   -1.01463496278290    0.11832256972282
H          -0.30411924473330   -0.81193305615728    1.97576381732584
H          -1.56591406292089   -1.07816713649647    1.07320211833278
