    19
        -40.91739552
S           0.22072577852572    0.16504168645986    1.24541977796427
O          -1.15273343335161   -0.06749105176775    0.88488560522114
O           1.15193223704166   -0.61922706377757    0.47431748428462
O           0.57000809930346    1.64299635244545    1.18137741838652
O           0.42155479262863   -0.11478443906160    2.75757359804806
H           0.23202368766664   -1.07432036703333    2.84161916172719
O          -0.20135591601770   -2.52660699263960    1.94501628653352
H           0.45582724196397   -2.42671528134780    1.24505159942180
H          -1.05127899694540   -2.30989376092372    1.54836718797807
O           0.83227511877889    0.04201333374156   -2.14394990436183
H          -0.09067887226716   -0.27445441467980   -2.22371163713195
H           1.15694928846343   -0.35722994642573   -1.31971297130740
O          -1.75611866164689   -0.57604956820979   -1.69303815927477
H          -1.62677052036720   -0.43368150985762   -0.73667845202629
H          -2.43240517140517    0.04651587653387   -1.96653920869269
O           0.60515071860674    2.42195163023527   -1.19923038497273
H           1.42042043887180    2.90303965818148   -1.36076377477485
H           0.69132595736340    1.53809978261316   -1.68509541702918
H           0.55314823277269    2.02079607552439    0.20509179000922
