    19
        -40.90639151
S          -0.99360673327994   -0.52287174226075   -0.20734029371695
O           0.42902361121047   -0.74029263310196   -0.27360285527158
O          -1.22639153214059    1.00973226309359   -0.22804848472059
O          -1.78257940125040   -1.16589732571913   -1.20383501322916
O          -1.52394836086097   -0.90670949353303    1.19188817949555
H          -0.86427401949754   -0.57316287653258    1.84235189935662
O          -1.21836457993855   -0.18373723787212   -3.65542147069577
H          -1.46533973097996   -0.70722990904352   -2.87106779209711
H          -2.03879696386623    0.06465970847095   -4.08620173400130
O           0.67359720411014    0.12290110335932    2.20848824431768
H           0.94745630390846   -0.19734278991592    1.32661675331953
H           0.72851340479440    1.08247079673225    2.18926177637707
O           2.88601053803765   -0.33074720612857    3.98080963883383
H           2.88954077630788   -1.20950733198007    4.36267890785203
H           2.08615597349268   -0.26705527588059    3.44259721478212
O           0.31302149336639    1.41540653043097   -2.19352398972223
H          -0.65882565766438    1.35806028104896   -1.00283866772512
H           1.00551232241299    0.80436319369521   -1.91972730908956
H          -0.18670463805051    0.94695994525084   -2.90308500408119
