    19
        -40.92343664
S          -1.54121091094139    0.55429091789167   -0.40241018180116
O          -0.79047747193007    1.76688984161330   -0.64942748692950
O          -1.42649082271672   -0.39446892470562   -1.51099478103994
O          -1.20233420841117   -0.06228148030751    0.87048644364820
O          -3.06462293988650    0.94546289765210   -0.31200994659090
H          -3.23467111211729    1.32425452774825   -1.16880827356049
O           0.88835495629900   -1.29194326664077   -1.43990044444181
H           0.83841469797697   -1.77971015235542   -0.53669967330538
H          -0.10127934724253   -0.99893057668612   -1.60752965140475
O           1.17375136426182    0.59277281190127    1.85745538184653
H           1.17139838782040    1.35833395472796    2.43362347612511
H           0.23939294251402    0.44711813928920    1.59011216807498
O           0.50564955236345   -2.11132555526880    0.93935020992558
H          -0.30060686066475   -1.55946532484737    1.01419727607747
H           1.14275832878873   -1.70643172675536    1.53814186881071
O           1.69646828150348    0.96220686957883   -0.75108401466812
H           1.80119817882478    0.87297569679938    0.21938160041600
H           1.36658347536637   -0.35809053883294   -1.23324589346234
H           0.83772350810645    1.43834188906578   -0.85063805752472
