    19
        -40.91904988
S          -0.04992179814886   -0.93931310792357   -0.69195566056918
O          -0.27757232888078    0.05468407891911   -1.71067661698564
O           1.28894549876696   -1.07302950729848   -0.21927005379717
O          -0.99714297029607   -0.62475514704289    0.48199133807313
O          -0.55377592173735   -2.31107478285457   -1.20539271705079
H          -1.46019413537763   -2.13172281230041   -1.55931947197125
O           1.66842098608753    1.70326999694544   -0.75284848347404
H           0.92750845588609    1.29474651589186   -1.22840533549150
H           2.35335150612968    1.02895385024341   -0.73548477893965
O           1.06967786757188    2.04140069515103    1.84473403783825
H           1.33702257014282    2.00332958985146    0.89882864517446
H           0.37211900607819    2.69580369658160    1.90369495372731
O          -2.73102674525851   -1.05268510335880   -1.88573770742232
H          -2.07546134787352   -0.37152641619723   -2.10556569141819
H          -3.13655175908990   -0.78256574557151   -1.05723044746298
O           0.59399462031829   -0.49349412084681    2.39220376149417
H           1.30894288951930   -0.92109997261190    1.90331555021899
H           0.79649027702441    0.47686519499418    2.35845652475126
H          -0.43482666084980   -0.59778689257578    1.36866214331134
