    19
        -40.91892670
S           0.62614640100329   -0.90684687025025   -0.91782721092793
O           0.82188386997209   -2.14912544688375   -0.20189869838947
O          -0.75298190609022   -0.52728942382121   -1.10008333654508
O           1.39999723944329    0.19068698044935   -0.30800672451043
O           1.24090904051108   -1.10149692555765   -2.36170944590075
H           2.04193304497293   -1.59607625815482   -2.21497769044093
O          -1.86673432049834    1.51383023303057    0.36572341670663
H          -1.42204985471612    2.04705949780438   -0.33145759713664
H          -2.00848368449286    0.65731326158369   -0.06811134980445
O          -0.22152818670337    2.05929449925228   -1.66809647265415
H           0.69486399673382    2.06903295761649   -1.37657255316502
H          -0.42988287703237    1.11846900474846   -1.79441781168666
O          -0.31012929829268   -1.67851993608650    2.08866604908583
H           0.15889294525641   -2.18307529964314    2.75687861140946
H           0.05224072201052   -1.97027500264892    1.21312257766303
O           0.10993634491470    0.80039093169860    1.72139407965374
H           0.75159880484343    0.62839910275712    0.90612481448688
H          -0.77416623768620    1.17757638146045    1.25935015435486
H          -0.11244602416288   -0.14934770737157    2.03189915779690
