    19
        -40.91188309
S           0.31056840275427   -0.82928632281721   -1.50211670642720
O           1.41617151845194   -0.26240852166523   -0.60707560596931
O           0.22470361307623   -2.24188881077049   -1.32421153040692
O          -0.88900262874342   -0.06398049830075   -1.35628215858386
O           0.86825334041924   -0.52854334447517   -2.94120655750674
H           1.47108291899450   -1.22992694282049   -3.18124528058513
O           0.09467940332948    2.30673447879392   -0.44775770846783
H          -0.38765928646260    1.59164363088175   -0.89454425841075
H           1.00715857501372    2.00925889246383   -0.39928435390682
O          -1.32945797952287   -0.63950550577886    1.34390447482087
H          -1.46600146331402   -0.50202246877224    0.39694746255675
H          -1.24934945968008    0.26151920366319    1.73257600438485
O          -1.00295977018651    1.94186135600966    1.99247282948063
H          -0.57126653405644    2.20330272355399    1.15063967687717
H          -1.78017269709804    2.49549529484967    2.08132521001762
O           0.99843419754480   -1.74029967794745    1.31705756600651
H           1.36631530234483   -0.85457508733902    0.29196249839563
H           0.08514442664280   -1.36359239294427    1.52139440491325
H           0.83335813050031   -2.55378600659472    0.82544403280938
