    19
        -40.91816419
S          -0.38975035108994    0.23173317035737    0.76268236144216
O          -0.91133230383095   -0.76260167841514   -0.14388895221400
O          -0.20812007241270   -0.34214106357758    2.16823541848799
O           0.84301829930606    0.80848260423007    0.28270832963153
O          -1.43469824187433    1.31251648056850    1.04098158602223
H          -1.74190184772974    1.77404740514020    0.18520833156624
O          -0.36997517978077    0.71319228592262   -2.31456571115649
H           0.48170073067198    1.04229013671873   -2.01072949146289
H          -0.60879175406494   -0.00193666373419   -1.69637988538169
O          -2.16040120474923    2.28497267834355   -1.19940122657112
H          -3.03421709878570    1.95940250437299   -1.42890181193257
H          -1.51676863442692    1.81318979135150   -1.78746808849953
O           1.82248962104362   -1.55796195021007   -0.50776574322253
H           0.99903122249638   -1.90170276119456   -0.86788329673355
H           1.66181296976024   -0.60964352721951   -0.34803368174546
O           1.70087487338530   -2.02754619822382    2.07779886952144
H           1.86463261197635   -2.02200173488808    1.10017789763137
H           2.48442497035132   -1.65708515742501    2.49127008555339
H           0.51797137980660   -1.05720634214068    2.19595500903065
