    19
        -40.92113580
S          -1.01465280050468   -0.25391267049312   -0.57677026545649
O          -0.40101397750802   -1.07397496388499    0.45040022020935
O          -0.07269400430380    0.95900243532726   -0.82751633746792
O          -1.28752284705997   -0.92171136157971   -1.80093676211748
O          -2.26581964615569    0.41185761865856   -0.01162405059380
H          -1.95941287782528    1.13091655411722    0.65278786783291
O           1.92293483236355   -1.80489066854088   -0.71669091862354
H           2.60769418389160   -1.63237836562830   -0.06707709173621
H           1.07064474795143   -1.71602619372606   -0.25324329928253
O          -1.21896476908988    2.12090364172390    1.53798857538034
H          -0.60856166584025    2.54214760433877    0.92548767733178
H          -0.66939142640810    1.53042660796529    2.11019521626010
O           0.19093947320896    0.20529796676374    2.69507977759541
H           0.04651615637901   -0.35392477446230    1.90267933416292
H          -0.19290602861691   -0.26965246016070    3.43469032810448
O           1.21746537110960   -0.14635344972552   -2.69140567031031
H           0.52542229498475    0.67787946269053   -1.60952841053471
H           1.67802129141342   -0.80767174608631   -2.12990119326636
H           0.43130166202967   -0.59793521730803   -3.02461498748594
