    19
        -40.92158863
S          -0.27659027472266    1.43381528648295   -0.21436628179550
O          -1.05540431302722    2.14362379818213    0.76367945868787
O           0.96111718089104    0.85311646537204    0.28488626870199
O          -1.06485213751726    0.42541830838271   -0.93439220592289
O           0.17637004695668    2.49527028348451   -1.30064391010299
H          -0.54327567097255    3.11814813900859   -1.33075295430225
O          -2.02551711660603   -0.14289542377686    1.72564475798093
H          -1.74007780015928    0.77174564592310    1.53413501272634
H          -2.63291033318254   -0.37268113147541    1.01854746971079
O           2.25305009612898   -0.67413077727471   -1.40472537848764
H           1.89879191903529    0.05787262058010   -0.84670564744358
H           3.08015843310955   -0.94968633060127   -1.00426001005728
O           0.28891637756618   -1.40310521588449    1.53932368258566
H           0.74794133770308   -0.55902993207067    1.35872551063711
H          -0.61242126197325   -1.11681381882645    1.82022441142938
O           0.01447190369974   -1.80406002074612   -0.90305899087360
H           0.11993059209959   -1.81962377774560    0.16312427426673
H          -0.52658667552638   -0.90684177519373   -1.02571896716192
H           0.93688769661376   -1.55014233378041   -1.24366651040856
