    19
        -40.91966069
S          -0.94187724956087    1.21641629257520   -0.75197541277384
O           0.39632858647805    1.73776297247538   -0.98377198032447
O          -1.23025190854816    0.09820495492134   -1.66322785568216
O          -1.18370639627432    0.85982896837118    0.62408571011551
O          -1.95617712133117    2.35811737731913   -1.13341016163779
H          -1.73225121404527    2.54980679735456   -2.03890165355415
O          -0.90624803864844   -1.67740341082491    1.56327756621298
H          -0.14837502866980   -1.25820085027538    2.03921579150178
H          -1.49448714502978   -0.92293238224501    1.39409812174301
O           2.02289980952744   -0.16978040889657   -0.45999075734346
H           2.76740047383545   -0.13621680855617   -1.06364163098536
H           1.46057548834961    0.63380817926312   -0.66171668731778
O           0.96450307535265    0.08419584510767    2.17200723177328
H           0.28438189746246    0.66749802314459    1.79725147375645
H           1.66222915606978    0.03763292579183    1.50823837101597
O           0.04433173755909   -1.80190597648320   -0.73967034232054
H          -0.37257416855518   -1.88181606396753    0.24846819499535
H          -0.56398176659492   -1.07225936815354   -1.21829802042914
H           0.92727982250614   -1.32275703688666   -0.63203796901613
