    19
        -40.92161562
S           0.93965293686664   -0.15472415942135    0.48022539072413
O           0.33555099829928   -1.08670676074013    1.40410692621376
O           0.59484303231065   -0.58458509479694   -0.94563260056321
O           0.60041087881509    1.21892303978400    0.69824183918139
O           2.47345164596696   -0.31508496945609    0.51957540859242
H           2.61820830708523   -1.29008943986060    0.42127728462264
O          -0.67994533936624    2.72221234519407   -1.14099107090908
H          -0.09914182952578    2.30476619476324   -0.47875057715439
H          -0.90795815297180    3.58971901541234   -0.80309492703890
O          -2.06493149624979    0.13493101767304    1.18004701591505
H          -1.82408966480766    0.99022734235078    1.54484723053750
H          -1.33465732711186   -0.46045071324253    1.41847710235273
O           2.02111480828244   -2.86268763535686    0.27355099726605
H           1.64842811416155   -2.96719390582410   -0.60652868248173
H           1.28388540140301   -2.62719579461138    0.85959819124283
O          -1.67556587045967    0.25929739945599   -1.45410526940014
H          -0.39019370847163   -0.25803398992703   -1.25017956330135
H          -2.05518134359708    0.17394526797631   -0.54787046244946
H          -1.48388138072136    1.21273083067816   -1.57279422322049
