    19
        -40.90767234
S           1.17256972865650    0.69220608159233    0.59823533914588
O           0.74381797599429    0.59040158225646   -0.77950711528256
O           0.08040284402767    1.45518893168536    1.38450097249490
O           1.49057713586444   -0.54203105699413    1.23357791730833
O           2.38106517338254    1.64428000586911    0.68644082596043
H           2.25740240311161    2.33981829195289   -0.01422090791720
O          -0.74955946855744   -2.09866484856253    1.40091741741662
H          -0.77671088125070   -2.63392554453270    0.59452440174050
H           0.15097268983581   -1.74338994002596    1.47684973342708
O           1.73222111927626    2.95146880665216   -1.45820966616447
H           1.18281073781561    2.14827279733412   -1.52841602122656
H           2.37415873112407    2.91518578433427   -2.17176295520406
O          -1.87920689460765   -2.74167128060566   -1.07743167051394
H          -2.51743202299971   -3.45718956454206   -1.09901569965510
H          -2.37594725462205   -1.92554473996600   -0.96145604717342
O          -1.75577358254171    0.06102351645056    0.29370073598092
H          -1.17213756355391    0.06010574778820   -0.47688073305531
H          -1.53887458812273   -0.76724578818581    0.80101093995835
H          -0.80035626285109    1.05171120750660    1.09714255274783
