    19
        -40.91624664
S           0.34558206540880   -0.14442996563136   -0.83943103341189
O           0.83177000769613    0.78428338227386    0.28932222719966
O           0.29959574817818   -1.49392061047492   -0.33326437313562
O          -0.87187777021765    0.35640490887976   -1.39255774135111
O           1.45915364951368   -0.02206165779688   -1.89925270222830
H           2.18792804059098   -0.63597408242986   -1.61963792171583
O          -1.43522028181331    2.67305272325440    0.00044829735170
H          -1.27605663601790    2.05159373156176   -0.72628647398374
H          -0.57580817350182    2.84748255494230    0.39107761987932
O           2.84315341175296   -1.96307312595009   -0.88152849683090
H           1.96615201896029   -2.09920379803011   -0.47658553145451
H           3.01485800270318   -2.72121745526208   -1.44565750433776
O          -2.54482848817877    0.37349424171049    0.94899700295076
H          -2.41079089519160    1.33340945049265    0.83143660367006
H          -2.41535480166048    0.00699577995035    0.06702862464312
O          -0.35039006451956   -0.36691581619112    2.16896816560780
H           0.43353766407764    0.39701976278997    1.16816996349370
H          -1.27284440124633   -0.10790319228214    1.89489749965262
H          -0.22855909652379   -1.26903683181460    1.85385578401679
