    19
        -40.90759026
S           0.19723142305024   -1.74175487797946    1.40489814254412
O           0.65910588482396   -2.18764667156337    0.02089466734620
O           0.35777157272614   -2.76873606682195    2.36900815880259
O           0.70728191339053   -0.43149472848562    1.68950816095811
O          -1.37424745758768   -1.55282020328744    1.18540015191886
H          -1.74267218625005   -2.43302868553304    1.20738155041416
O          -1.29895840355891    2.01720442765342   -1.23429320436562
H          -1.35255919429361    2.97426284141185   -1.25078812064109
H          -1.31451346115696    1.76335590663057   -0.28266433832479
O           0.90235833675845    1.05923660238329   -2.38077298575306
H           0.61259177911466    0.55070229027440   -3.13956137102815
H           0.08630667817000    1.42609783556116   -1.96517262844519
O          -1.31485070401561    1.31779634232633    1.34673553765878
H          -0.51076742191452    0.80367352707888    1.54134498303442
H          -2.04226299493258    0.70699959296649    1.48558195082056
O           2.20789047644651   -0.35532103407268   -0.59780062392530
H           1.78364922473179    0.20372108679401   -1.30519466756095
H           2.08970082171650    0.11598088263864    0.23671352058473
H           1.34694371283482   -1.46822904797062   -0.33121889404404
