    19
        -40.92343661
S           0.00141441291532    1.68347300532596   -0.10324386693808
O          -0.60335285453457    1.61305037866832    1.22775818441253
O           1.43014920601871    1.45584803023446   -0.05956210234046
O          -0.67403134056285    0.80851374274355   -1.04840249042422
O          -0.23334113673138    3.15406187840222   -0.61721802520096
H           0.20581328256589    3.67952801604579    0.04423796899432
O           1.65371835906642   -1.01012317968742    0.78336794718453
H           1.42559585744974   -1.41966452799790   -0.07748332994523
H           1.78205863799810   -0.05693493618061    0.56163212851818
O          -1.90480397359851   -1.39153486275198   -0.17323041981500
H          -1.72104798846741   -0.51403087717406   -0.56865475396662
H          -1.41344569606967   -2.01847871856589   -0.71535546727012
O           0.62197647794052   -1.42599799044590   -1.66133284440255
H           1.20593750613885   -1.35617443481405   -2.41779542671354
H           0.19058485654134   -0.54823825444667   -1.56528129441017
O          -0.56155643618979   -0.77781286451789    1.89988522557541
H          -1.19589006429656   -1.15194245666678    1.18309304821712
H           0.42543100802835   -0.98015306836211    1.54074151262595
H          -0.63521011390801    0.25661111035311    1.76684400622558
