    19
        -40.90789776
S           0.93280690788834   -0.27889111684984   -1.65519165295443
O           1.96776520840128   -0.74454407595709   -0.62112488798777
O          -0.10142303095427   -1.26427592163686   -1.78102796628247
O           0.50888715925380    1.05911427839829   -1.41611778251879
O           1.78958724737611   -0.29809926735179   -2.96436246145862
H           1.89723394934944   -1.21459626593455   -3.21018683174785
O          -1.68486726354989    1.57341917560515    0.05908327003278
H          -0.88784431727767    1.49544887816611   -0.49823600719474
H          -2.13324926862651    2.37670882427595   -0.21066749641539
O          -0.13261703507920    1.73970302246479    2.47346904368396
H          -0.75957612154178    1.77313127715077    1.73956698205652
H           0.37649859894585    0.93453608205145    2.34250318648792
O          -1.58798553109104   -1.13417768261416    0.48677184332202
H          -1.27083184550661   -1.33163882794618   -0.41060319322189
H          -1.91080114648225   -0.21872606529854    0.45504974649916
O           0.73531424663968   -0.92676563525945    1.57106656127987
H           1.53141711401278   -0.79378994661053    0.30621064347513
H          -0.22064044472664   -1.03261176471026    1.25723262233886
H           0.95032556318616   -1.71394497812159    2.07656436031716
