    19
        -40.91167186
S          -1.40863731917418   -0.66632615185000   -0.15170487181513
O          -0.46078526784773   -0.19407193861766   -1.25731539797015
O          -1.42098473072123   -2.09333913805950   -0.11516702006208
O          -1.15006951911243    0.02045080073732    1.07545509344530
O          -2.80153108430490   -0.15269401133432   -0.66253259751706
H          -3.10450403171738   -0.74078758386639   -1.35174437258975
O           1.80809222631812    1.58265721269467   -0.22766891472357
H           1.49356159049231    1.34235838964220   -1.10209992213214
H           1.08922913514726    2.11251120544073    0.17051739354702
O          -0.42727763075235    2.62166875848502    0.91624898366342
H          -0.80733125293151    1.72844079089773    0.99011205778590
H          -0.39157353685270    2.97618637408713    1.80683016417788
O           1.55981555948593   -0.71677551791791    1.12265322381485
H           0.66409992302917   -0.55423249127487    1.44247161654864
H           1.85055112397985    0.13752132050254    0.72675418893976
O           1.16475704305641   -2.04832650764181   -1.06063122148141
H           1.52991357214764   -1.68199135426676   -0.20261987205551
H           0.52533110828849   -2.72476501652265   -0.80437764077350
H           0.28734308153054   -0.94848515108118   -1.31518091077206
