    19
        -40.91793123
S          -0.73711800685631    1.00920968845129    1.23557473147116
O          -1.58411079861546    2.04517636302300    0.69085468815049
O          -1.29373264526221   -0.33330076911870    1.00205343165297
O           0.63931724965667    1.08830012089165    0.79178280635714
O          -0.71164348592608    1.19229691225072    2.80591370123486
H          -1.62869654549803    1.28361608711534    3.05013768143234
O          -0.49148508468557    1.67828679924218   -1.66215316013603
H          -1.05264919763298    2.00993964844457   -0.92494403901638
H           0.40261996095218    1.72716401736371   -1.30368165321003
O           1.05207712974224   -2.11450758095126   -1.40571919900070
H           1.49487166568014   -1.75570410010425   -0.58836315570270
H           0.88526924944934   -3.04311194326491   -1.23194947100401
O           2.05434638883133   -1.10702975321652    0.78880542121244
H           1.49748963953241   -0.29832438318933    0.88781556229042
H           2.96333945131167   -0.80245990068815    0.81664495386342
O          -1.10317945591965   -0.77314218244528   -1.41093465544620
H          -0.23676502896422   -1.33424801736251   -1.49014255890907
H          -1.27088702851335   -0.66482898638478   -0.35797236637131
H          -0.87906348777721    0.19266797039426   -1.69372270874434
