    19
        -40.92175577
S          -0.03798792760162    0.19547304281641   -1.03366826709470
O           0.73495686512037    1.03920902069369    0.01924139334752
O          -0.65570112471990   -0.91998109843207   -0.35346649487261
O          -0.94410033922646    1.02002864646232   -1.76629565877584
O           1.09313914634815   -0.28950476863076   -1.93228189107733
H           1.86018975051303   -0.60440034168342   -1.32625299746906
O           2.83097751074114   -0.95653803072678   -0.21810910120852
H           2.91248042095831   -0.13720267977900    0.27858571412747
H           2.29705103827329   -1.56726483861807    0.35014581755929
O          -2.90417598340584    0.65800822056231    0.04901360711918
H          -2.57232796752470   -0.23393765064696    0.20389372077446
H          -2.53192771453851    0.90081854727311   -0.81422920516963
O           1.03100507006707   -2.35289975305338    1.10521513185261
H           0.88024978525999   -3.28071339252946    0.91471929428284
H           0.31118415747009   -1.85851761134551    0.65911110557243
O          -1.15128179762581    2.17211345565720    1.30458914604053
H          -1.29008385004217    3.06363179331727    0.97590605522734
H          -1.92028381480371    1.63388462704592    0.98076485927463
H           0.05663679474391    1.51779278160530    0.60311778048757
