    19
        -40.91739542
S          -1.02562708607993   -0.74456639498002    0.14541014506042
O          -0.67933919066819   -1.27293294847897    1.52805004004257
O          -1.20365815394658    0.68525363618929    0.16916354745172
O          -0.07214886178410   -1.18208949761599   -0.83946883991509
O          -2.38933638395863   -1.44184712777229   -0.09746718124270
H          -2.66702963865359   -1.10514139233410   -0.97679758387280
O           2.07133225495828    0.36831462763478   -1.35990964779843
H           2.85772561539670   -0.16965195228671   -1.25104572258523
H           1.31272940079660   -0.23687325743643   -1.26125428983895
O           1.20299053368462    1.81130686224547    0.74906715147412
H           1.66450168015763    1.50059093268966   -0.05647781251292
H           0.25953509583613    1.68395073984480    0.55420878307974
O          -2.22050826880918   -0.03064668686525   -2.29864394266328
H          -2.01170942728944    0.73848324930702   -1.75400091593968
H          -1.37720644625425   -0.37920271936011   -2.60528376207654
O           1.39808968065925   -0.16393668671744    2.38244883852160
H           0.20912920004030   -0.86749396219609    1.90497480406373
H           1.42787697398146    0.65669247855953    1.79037368136125
H           1.24265302194518    0.14979010946475    3.27665269740343
