    19
        -40.92079121
S           1.44975284002186    0.10297372474494   -0.31076010531239
O           2.18367763047424    0.25416405339805    0.91913261664804
O           0.61956561215387   -1.09225750286660   -0.36887709865936
O           0.67677278350518    1.29808971988089   -0.65440249796086
O           2.51094278663948   -0.07681748737523   -1.47113582035905
H           3.11394926507533    0.64667326752284   -1.33159039497423
O          -1.20100150720043   -1.11257557197180   -2.25701943314379
H          -1.67165031528188   -1.94720022147483   -2.21012339549623
H          -0.40197055164930   -1.20806968147072   -1.68663790264429
O           0.27265398065466    0.85154203543135    2.64412637705558
H           0.60133690632245    0.66202006084183    3.52497987437930
H           1.03075586849063    0.71730555685944    2.03487738124845
O          -1.43886026981870   -0.58679904817415    1.24795450900027
H          -0.98398863919936   -0.02706393262799    1.92031127722753
H          -0.70481928402287   -1.04259453608075    0.78833147264296
O          -1.76046818566678    0.87523134537071   -0.74481477110625
H          -1.74131044884339    0.16646151974532   -1.47113324732031
H          -1.79626272968458    0.31502753016215    0.16206418010681
H          -0.75907575206122    1.20388916803141   -0.73528303134903
