    19
        -40.92079116
S          -1.03889317044954    1.06148545849152    0.04992488971366
O          -1.42717200648970   -0.12242189837176   -0.71909014400928
O          -1.62534164688082    1.08294536514680    1.36514019502280
O           0.40588341406926    1.24421731970713    0.03613020023616
O          -1.61811938151261    2.30336033415443   -0.74189471960046
H          -2.55789007700226    2.23134423813399   -0.60695486664177
O           1.60540641501598    0.58879909925136   -2.20233995072857
H           2.54315743312898    0.76458142114874   -2.10203510396278
H           1.15447045774206    1.02649278833456   -1.44205083275716
O           0.50148794925861   -1.54887212765544   -1.32960345735611
H          -0.40737411382203   -1.05112908227566   -1.13710140039144
H           1.01241608968873   -0.85239808329813   -1.86293906124407
O          -0.79288894412345   -1.20809258620774    2.38650897784617
H          -0.86530519381559   -1.14941546065738    3.34100572582015
H          -1.19893163891152   -0.38805073953615    2.03074745886868
O           1.40570059788317   -1.05604700822757    0.94028448816819
H           0.69177435277463   -1.30644505373774    1.57254798125571
H           0.95472402631121   -1.51929074995392   -0.36475513059278
H           1.25689544715260   -0.10106321440462    0.78647477032865
