    19
        -40.91893410
S          -1.18551380924246    1.23985551264407    0.27298391157488
O          -2.15562731166097    0.67247161515169    1.17471815681347
O           0.14490089841986    1.35167052820371    0.89043957563997
O          -1.10486798339493    0.60146799042004   -1.02606669184760
O          -1.64917136902502    2.73251532296730   -0.00477270634473
H          -2.05443061094655    2.98816202248128    0.81835516005639
O           1.07141309525100    0.01327477595761   -2.30243629614271
H           0.17609686493465    0.21010615423743   -1.92309116696430
H           1.26912217176051    0.72722059593490   -2.91134764466703
O           1.24951995363032   -2.08131830307550    1.12328395066396
H           1.28552840379587   -2.05627740901454    2.08143872770429
H           0.28507018530943   -2.04230124658608    0.88211478078737
O          -1.27035635199724   -1.71839282277200    0.49219382369611
H          -1.36833361969680   -1.56477018049118   -0.45224599559938
H          -1.68018645779789   -0.93185125160367    0.90605158945126
O           2.05410342504093    0.05615529841999    0.03778006676925
H           1.84093014511115   -0.86258929574039    0.46635934778059
H           1.81234820104710   -0.01854643435317   -0.95540590669824
H           1.27945417945277    0.68314713723390    0.42964732733528
