    19
        -40.91836431
S           0.10304990278020    0.62413875894302    0.99477367625985
O           1.51670460291523    0.07703411437571    0.71227032092454
O          -0.41026889064315    1.17933195372799   -0.23800398175440
O          -0.72535340109467   -0.34988585775629    1.62030035292338
O           0.40047547879648    1.76857400391368    1.98337579024431
H           0.88719863028181    2.44419592024965    1.44694745552321
O          -0.96201993477119   -1.05780024342529   -1.71713514484839
H          -0.89135302005569   -0.15344965027075   -1.37150781042082
H          -1.65024081246614   -1.48611069075101   -1.16935774204423
O           1.51269246347988    3.02611789234303    0.00006495292399
H           2.32123162447970    2.56187035583626   -0.23166784024043
H           0.78467322547852    2.57349273960452   -0.45873786470464
O          -2.57466072041870   -1.85808203288795    0.29634146648490
H          -1.93265424830632   -1.44957189894546    0.90193475042771
H          -3.42765278686933   -1.47553643880181    0.50943872212552
O           1.27251959689381   -1.93849833075095   -0.76738003538102
H           1.91983240785634   -1.97026919043674   -1.47567360460552
H           1.46790930833708   -0.79661678927485    0.15962942690792
H           0.38791657304186   -1.71893461553487   -1.19561291090324
