    19
        -40.92008970
S          -0.63809544134733   -0.48213499039270    0.12973656648040
O          -0.26706467922133    0.53458980637409    1.07438899962829
O          -2.08723436720982   -0.28040975698740   -0.32225603880733
O           0.22434408940875   -0.54334565917739   -1.03121035154429
O          -0.67109540844804   -1.85212881344364    0.81282437099594
H           0.04560250619170   -1.82517029661401    1.55195912836871
O          -0.28335522959992    1.84386652502775   -2.19577689459376
H           0.03850478263813    0.99278804074044   -1.84685346388296
H          -0.53928340117967    1.68502972473099   -3.10667639021774
O           1.22718381844908   -1.39184154707086    2.40412325902833
H           0.97605530227868   -0.46365874374409    2.49449971157213
H           1.92591406788512   -1.40667879865922    1.71260770661476
O           2.56291075110132   -1.30454486330205    0.09268818462568
H           2.87562607092487   -2.08727669077016   -0.36565386436565
H           1.80884368196349   -0.96520838787947   -0.42285742650402
O          -2.03860268135788    2.23650062730068   -0.22059986561582
H          -2.25975735973722    0.73469527408021   -0.29842494964429
H          -1.44553874127813    2.23038884379736    0.54177475871494
H          -1.45495776146665    2.34453968594305   -1.00429346083378
