    19
        -40.90903595
S           1.39373436350919    0.56989722566583    1.41280929460355
O           1.76543933334854    1.44663095898812    2.46150073597871
O           2.52573729139585   -0.37043233693832    1.03625778457205
O           0.16918254786776   -0.16924504864224    1.53267052501584
O           1.22488093110681    1.46680231230825    0.09587995380288
H           1.75156580920941    2.25007238897169    0.23837114349987
O          -2.17539010870272    0.90529830353899    0.77265743621245
H          -1.32225519526706    0.53548456758230    1.06458463822944
H          -2.72257138530619    0.97731766831459    1.55609454063863
O          -2.31250682578459   -0.14685259976920   -1.73716491251422
H          -2.90032112027135   -0.89909300427194   -1.65394708117625
H          -2.34651688408706    0.33074120110203   -0.88760387618134
O           0.36391964968121   -0.34050372031356   -1.98953557101295
H           0.61933223449265    0.47678154849028   -1.54982310592489
H          -0.61529226907748   -0.31421707946313   -2.03900403215998
O           1.17592708653454   -2.04990467906333   -0.20263606792411
H           0.90141308750660   -1.51602762835017   -1.00428392523497
H           2.07493331589138   -1.14910003230667    0.48756379857770
H           0.42878814798146   -2.00365004584905    0.40560870096516
