    19
        -40.91974996
S           0.65778602014531    0.45911681103889    0.25753318290571
O          -0.38770071095757    0.12838573598032    1.18584933936705
O           0.40446284020983   -0.02701907963066   -1.08330780495990
O           0.91699410768817    1.96724643931840    0.21278364158652
O           1.99991431148680   -0.07403240539370    0.76344329148377
H           1.79222642456591   -0.89763389378232    1.34147536458687
O          -2.21947491355436    0.61586662605914   -0.82938834979205
H          -2.16001428569691    0.35862094829708    0.09904431727503
H          -1.43092628315861    0.22277425884679   -1.23497987417438
O           1.07160710293418   -2.08546211246134    1.97140220582282
H           0.26964197384318   -1.61116073099342    2.22539085765756
H           0.84549357000528   -2.55762351155868    1.14090724739316
O           0.51420728351116   -2.67489454537643   -0.58219013148768
H           0.42199246442948   -1.75483625784922   -0.89052468849034
H           1.14120013056305   -3.09825701627112   -1.17221266720267
O          -1.17630640957006    3.02996719736170   -0.77304831336166
H           0.10382915404872    2.47526983955037   -0.13738952860243
H          -1.01985095606459    3.30616171239239   -1.67937486051734
H          -1.74508181435738    2.21751000443997   -0.81541322948653
