    19
        -40.91899956
S          -0.22358229282519   -0.05068479279575    1.19501899677633
O          -1.04793293081975   -1.10449259412979    0.64167471209642
O           1.11921028738640   -0.48108805012325    1.51091226858382
O          -0.18864824113615    1.10548094174600    0.25003002858823
O          -0.87044996759414    0.48213587428342    2.50193017360378
H          -1.68552565788377    0.92771671620576    2.18956360613074
O          -0.67006800532048   -1.68359704415432   -1.83989020385253
H          -0.25487874876362   -2.54907749490326   -1.83502131505383
H          -0.95684573894188   -1.51281795785860   -0.89992162940319
O          -2.57625250751588    1.89679094479378    1.07805922980551
H          -2.60777845681183    2.83858063860582    1.26154926390192
H          -1.80007413693389    1.74654400448189    0.50691980114826
O           2.72826232968097   -0.82967866202509   -0.47255599525311
H           2.17225235591120   -0.80269034107994    0.35422544170346
H           3.54161442104656   -0.36848880041715   -0.25753068260175
O           0.89552220182740    0.28619298598547   -1.81195010048846
H           0.25821066273505   -0.51610181899418   -1.99918433873090
H           0.42557515351992    0.75111739587763   -0.97380518710690
H           1.74138924175944   -0.13584193201381   -1.40002407516538
