    19
        -40.91955061
S           0.58885988700461   -0.76512338821959   -0.65524950312799
O          -0.09653456571876   -1.32790498849531    0.48523243737047
O          -0.43572899349241    0.00660029465921   -1.50741833075688
O           1.71755918415370    0.05076347693524   -0.35334683792548
O           0.99947191441316   -1.90373020838987   -1.61039016587588
H           0.16824546015328   -2.43205179318458   -1.71515182035931
O           1.04823802810924    2.18297689007214    1.21498304790238
H           1.59074350341159    1.54416530601001    0.72584806464468
H           0.62778753157515    1.65820101374997    1.92518063828635
O          -1.44493370351444   -2.74300878954510   -1.35646308545766
H          -1.28842164349692   -2.42697557490139   -0.45158800663896
H          -2.00033559521758   -2.08501167806674   -1.78379220428792
O          -0.03550761297309    0.21495084647391    2.72086982915224
H          -0.13811337657002   -0.38769180405846    1.96293244040303
H           0.49029093119631   -0.25551758758312    3.37030709280102
O          -0.72312212568226    2.34264931899076   -0.65013179445049
H          -0.59356063892867    0.97911928596531   -1.16259557094504
H          -0.09087579754503    2.38089252807018    0.13708212773677
H          -0.38406240689791    2.96669685156613   -1.29630836846457
