    19
        -40.92007399
S           0.69443365095160   -0.95862625620961    0.74009638858795
O           0.27591822191948   -1.14601297175036   -0.66385728544918
O           2.09839814625054   -0.62540109966918    0.82994071723339
O          -0.19185600124063   -0.05686492622346    1.42738836287315
O           0.51638886722752   -2.38249476789550    1.41432626266490
H           1.32566236579054   -2.83669429218204    1.19954673563026
O           0.01571604252499    1.18211415975211   -1.56663563391495
H           0.13121811855035    0.17846780692653   -1.37532037005617
H          -0.86891108026429    1.41219089004106   -0.94776897928372
O          -2.38857558875439   -1.19706920577210   -0.27489151760323
H          -2.50402711954236   -1.56869318003596    0.60187138414414
H          -1.44929857062100   -1.33348098961995   -0.50004116966832
O          -1.86892136859390    1.39411313242271    0.01793339252697
H          -2.37524304375267    0.57929560226240   -0.20778553316622
H          -1.31839253374814    1.09567073201396    0.77575976418230
O           2.05017545168045    1.78648622841336   -0.15690769698291
H           2.12813958197616    0.92136102688327    0.31683914100523
H           2.91138215646154    1.96343224100784   -0.54183849092032
H           0.81779270322041    1.59220586963806   -1.08865546181947
