    19
        -40.91295825
S           0.78083098117473    0.97561048166502    0.89262146226595
O           1.41259233715497    0.44136111249453   -0.38730557988750
O          -0.55326609201574    0.44217394010800    1.02941202539970
O           1.63105136111346    0.79929848381709    2.02026924235019
O           0.65730430863220    2.50417122616318    0.57763105662801
H          -0.00549155724922    2.59239134099302   -0.12613886514829
O           1.04762258072381   -1.90059539903010    1.98820514938711
H           1.17612536716468   -0.96361285756139    2.19920517542976
H           1.87480736701731   -2.34123641239833    2.19829310208148
O          -1.54943754774338   -0.81976234847853   -2.01355057591383
H          -1.21117182981411   -0.83777929100488   -2.91111880108248
H          -1.59069720220620    0.11456962489631   -1.75014641004638
O          -1.58808179714153    1.77124859825059   -0.90627527094726
H          -2.45782367601652    2.14360245108905   -0.74337461593824
H          -1.37560686441592    1.20334969311177   -0.12708761436309
O           0.53762871500570   -1.85052136149290   -0.65930270167184
H           0.47225585064338   -2.05573791533133    0.29649046879744
H          -0.35989372676080   -1.64532531703735   -1.00475171069613
H           1.10125142470773   -0.57320604019505   -0.57307553663478
