    19
        -40.91955060
S           0.42006015401405   -0.30471665345519   -1.04560694151921
O          -1.10142527902410   -0.53501543200217   -0.98435547636991
O           0.69348074462434    1.05429320727076   -0.63846107514474
O           1.11783862250265   -1.31505454463748   -0.32241307963500
O           0.69944703638008   -0.44548731993923   -2.55532589709485
H           0.21747649116472    0.32216945368411   -2.95471970099071
O          -0.71390225919860    1.71596091189674   -2.82700874909942
H          -1.61622841296870    1.47873676264794   -2.59562209877923
H          -0.26024090635283    1.92324323947248   -1.99368156989054
O           1.27270883570726    1.35832236934241    1.99878701063987
H           2.19174606590737    1.62661963721047    2.05289476549881
H           1.04444188022044    1.35235573054291    1.05221014411991
O           0.55823448856734   -1.22667164614516    2.34839431310866
H           0.80478074666809   -0.28844346030083    2.47300050510206
H           0.97733339615945   -1.48182799958633    1.51120128511995
O          -1.80918253434762   -1.17939457791644    1.33071382618206
H          -1.43159232332603   -0.78511824311231   -0.02640226196048
H          -2.12483154171815   -2.08618185045346    1.33040925018360
H          -0.94014519497581   -1.18378956451072    1.84598575052296
