    19
        -40.92078029
S           0.66959870567147   -0.75344727824465   -0.27930968428493
O           0.73050018664085    0.79194648450431   -0.47253567007201
O          -0.49118888656562   -1.04499803240144    0.53625675914503
O           0.68487161405555   -1.39916291009543   -1.54771565327071
O           1.94447864351569   -1.03771213805298    0.50385678510079
H           2.04485190752876   -0.30881626267096    1.21977149001911
O          -0.56996030911761    0.45403192218552    2.74140518368092
H          -1.33419265159158    1.02841094552510    2.66697044924574
H          -0.64086275715264   -0.19813838955810    2.01667088306482
O           1.96205120395075    0.92634683294308    2.10220715936338
H           1.85943463372690    1.63486609165223    1.45939782040236
H           1.08390148690257    0.81625008900522    2.53558983376397
O          -2.26980814625239   -0.78176080596121   -1.46871438344508
H          -1.76601679562004   -0.92013655820174   -0.64691113515472
H          -2.26444816147446   -1.62837664912182   -1.92123063053344
O          -0.53876321446059    0.86073581777326   -2.66041675180528
H           0.24782534669204    0.98571368835491   -1.35120248775076
H          -0.01360840235447    0.18600529513038   -3.10457049320058
H          -1.33866442390354    0.38824184720204   -2.32951945416937
