    19
        -40.91898905
S           1.00613930743114   -0.34622232389154   -0.27752464948342
O           0.63225238560253   -0.37406725861525    1.14371175918299
O          -0.00203130646907   -0.99276430927163   -1.09161658633126
O           1.25968006444505    1.02727664322834   -0.71880973316788
O           2.35606402086335   -1.10305710653679   -0.42167488329433
H           2.22586629428797   -1.92289658419540    0.10032175185301
O          -1.91552791039666    0.35810384189929   -2.17370624437498
H          -1.17646522696321   -0.24822114500532   -1.89565508577107
H          -2.71939911854898   -0.02643560437013   -1.81689660822729
O           1.57953552262000   -2.81703900551219    1.42231813616444
H           2.14087642711089   -2.88322097364180    2.19842741514955
H           1.03458930575432   -2.01401000724386    1.53726068314600
O          -1.33163514780497    1.29030332513611    1.46163312156308
H          -1.11682329323184    1.81462880936047    2.23606697622626
H          -0.62605766649324    0.59134648352096    1.40014024015028
O          -0.88001180452186    2.23666505391321   -0.85262510605549
H          -1.39830476525738    1.58907217997871   -1.47940824679770
H          -1.17895075875538    1.99449029904847    0.09749441140685
H           0.11020367033323    1.82604767220210   -0.86945737133617
