    19
        -40.92135320
S           0.14130538057582    1.41330254726899    0.64589871083591
O           0.71161552408412    1.72513789149535   -0.66550563753345
O          -1.30461706688410    1.39750690161736    0.61840127060411
O           0.71752854445349    0.19974885062697    1.20300863403195
O           0.58036958537573    2.58397839320540    1.60863924327861
H           0.11894715920929    3.33659799635791    1.25166786776432
O           1.97990701145975   -1.37211652147757   -0.51031150187539
H           2.89713761599142   -1.10209972056803   -0.58447244908714
H           1.59809446617330   -0.86419501183667    0.24116820702098
O          -1.84049088409340   -0.65104665889810   -0.92422228078355
H          -1.85527791886768    0.20156103941823   -0.42845495401842
H          -1.66777874384358   -1.31633733452851   -0.21569309388750
O          -1.09043368499752   -1.78849014310771    1.34006565714217
H          -0.38439350840728   -1.11786571838166    1.42081617491831
H          -1.70535763827355   -1.61717392215538    2.05542135288735
O           0.30725123885036   -0.27357107966337   -2.09438283618599
H          -0.67610277487722   -0.52711207874796   -1.69013653634658
H           0.49094182644590    0.64625553166814   -1.64771398367062
H           0.98135386861207   -0.87408095439834   -1.62419383363522
