    19
        -40.92045294
S          -1.05471566279160    0.85324334941003   -0.84670500655433
O          -0.97913801448220   -0.57559388756579   -1.13869603019290
O          -1.60426975419553    1.10755214208457    0.47160678185590
O           0.22677437390913    1.50266714237704   -1.06643053795764
O          -2.07637394243065    1.48815008618787   -1.87617270255131
H          -2.89608511059013    1.49574042928499   -1.39081550403342
O           0.68603268353601    1.47180971605493    1.61817414787069
H           1.02774000434860    1.97226951913657    0.86569297976190
H          -0.27325206713580    1.36175037471741    1.39322490757579
O          -0.70331825696580   -2.00146449598060    0.99192501825895
H          -0.79991212542615   -2.91990886254755    0.73312837565749
H          -0.95438237905780   -1.45230167960544    0.20102985393108
O           1.54071317076992   -0.85439590669379    1.23811299554413
H           0.67286158925261   -1.40401313601799    1.27438193873774
H           1.24777000177496    0.12539866918074    1.51229212059858
O           1.75935168081763   -0.56507695720882   -1.25582202719497
H           1.32452224796355    0.32526664030207   -1.30277093565178
H           1.76389623519556   -0.78339534924490    0.21509475119643
H           1.09178533549791   -1.14769777391139   -1.63725114683265
