    19
        -40.91624650
S          -0.73284374702274   -0.45697825033898    0.31230257965268
O          -0.63396009656099    0.93321265646927   -0.34374302608479
O          -0.18459697146988   -1.43221805951407   -0.59751440509972
O          -0.15032853534479   -0.42323966356321    1.61564612311908
O          -2.25335005407274   -0.67153485279901    0.45360486561455
H          -2.57933033889941   -0.99326265686170   -0.42758972764781
O          -2.46745681140497   -1.75177690863711   -1.89263866784931
H          -1.50815289059195   -1.80892302209099   -1.72527406715195
H          -2.80204476601689   -2.65123376461885   -1.93129166174062
O           0.70555726165379    2.17490434400061    1.99066460815971
H           0.26840156869624    1.32062904804514    2.12772488367917
H           0.20891541295084    2.61691040881558    1.29816511069757
O           2.52998016394464    0.41839002464709    0.98718382526999
H           1.98489277338073   -0.28298185925760    1.36115482914178
H           2.19266201389302    1.23319247635356    1.40604375197185
O           1.58447085606920    0.59408534589091   -1.44757785418569
H           0.25421351876962    0.92973093937228   -0.88421442749780
H           2.12606319654273    0.58014433952914   -0.61118718055278
H           1.45690745546637   -0.32905053536319   -1.69145955954663
