    19
        -40.91855610
S          -0.45666120547380   -1.00260908960890    0.38115019573536
O          -0.38259319181233   -1.37359563188218   -1.10114136050458
O           0.74542893063518   -0.27825616320240    0.74571776038016
O          -1.67593228209957   -0.33776452667005    0.70170045422332
O          -0.42728887778307   -2.38123377838978    1.07155479806236
H           0.51393311779489   -2.68665598399439    1.01424906859798
O           0.49661103204204    2.16741672804569   -0.45332384851811
H           0.76072601618583    1.41217574338531    0.09648933857136
H          -0.34478488143163    2.48140659815283   -0.06716443842375
O          -1.91662391771441    2.37101293971640    0.75046074292744
H          -2.10832797220119    2.61441615548756    1.65763891370311
H          -1.99171762776260    1.40156829008223    0.70583864478876
O           2.16497446419257   -2.49668039846248    0.94226640990548
H           2.63778768764566   -2.59423470766372    1.77260030235773
H           1.98301165129997   -1.54512990714555    0.82760071508398
O          -0.20995150573190    0.72224862499902   -2.47737050548693
H           0.04405307756146    1.39527608884654   -1.77368105540208
H           0.53174550754513    0.66658744233111   -3.08446522477748
H          -0.36439001286928   -0.53594841402947   -1.71012090122898
