    19
        -40.91215941
S           1.66074266028323    0.15442745484744    0.22821336066741
O           1.52007092841534    1.13101294187826    1.39254342699203
O           1.00134438561860   -1.08579677516368    0.54210704987832
O           1.32214779627456    0.74707023698362   -1.01958876652496
O           3.20554797430325   -0.11746438464313    0.24180469888440
H           3.39611483793564   -0.62821427056147    1.02589663258129
O           0.14933255119283   -1.43334140647669   -2.13085289448114
H           0.35026353346571   -1.92836082612613   -1.33016953294607
H           0.60380864765119   -0.58415271233965   -2.01489015514830
O          -2.30479801339535   -0.46751795014057   -1.58306415925939
H          -1.50025713054809   -0.91967994961163   -1.91885601872585
H          -2.29559972919738    0.41081446893134   -1.96725744478664
O          -1.63863273395156   -0.47103094214177    1.00173812651071
H          -0.77321145951292   -0.90270689641983    0.92566907768007
H          -2.03593126700420   -0.51548944226044    0.10037578254941
O          -0.84085260516545    1.90889967635021    1.45969484405375
H           0.54837843942277    1.53435406702275    1.41486696479229
H          -1.27629611470712    1.00774841437570    1.27950552256402
H          -1.09217271111633    2.15942828550011    2.35226349479383
