    19
        -40.91907702
S           1.12306560656664   -1.19750932592898    0.29076374265686
O           2.17258496597019   -0.73180410894822    1.16680622874269
O          -0.20443012651819   -1.10850515819105    0.93517525519787
O           1.10599112429371   -0.56446951861052   -1.00795084355677
O           1.36642807626894   -2.74333581843642    0.05155322446638
H           1.73790226759775   -3.06612712235789    0.86847933357925
O          -2.11802080489619    1.50500579718453   -0.88152265753697
H          -3.06869921221260    1.55621556291713   -0.76700458533832
H          -1.91921398552372    0.59501690941860   -1.24966860792935
O           1.70157512189801    1.72991916383899    0.39530995933028
H           1.66461286283496    1.47127774760066   -0.53469455896883
H           2.10085639634595    0.94665697375436    0.83575272819658
O          -1.46139127239264   -0.94316413883030   -1.48823040122605
H          -0.50188374640600   -0.83000451818699   -1.63668002777943
H          -1.49411080918764   -1.36202576869796   -0.61812026051877
O          -0.66445306793374    1.31807419026564    1.17671692944718
H           0.28256613348158    1.65664492868479    0.90999793127781
H          -1.29062624975190    1.49675471105433    0.36549899369701
H          -0.53275327043973    0.27137949346976    1.18781759621979
