    19
        -40.91966073
S          -1.19688575795013   -1.20970680913753    0.19069292391471
O          -0.75118617233230   -1.06145538292531    1.56746063145681
O          -2.05902796506362   -0.08415129257278   -0.20171448675681
O          -0.11345294638792   -1.40213476109262   -0.74112580718884
O          -2.10739471024295   -2.49262152326147    0.13427956372704
H          -2.78333935709265   -2.30337255675839    0.77775532918596
O           2.35080709131190   -0.33082099263136   -0.12132048823258
H           1.64768387654107   -0.99635102813458   -0.19939210883888
H           2.13630579824329    0.18353811365180    0.66540370298703
O           0.99081308130733    0.63477549858324   -2.16851870214281
H           1.75683129233058    0.43070445604565   -1.57832785534835
H           0.50194112290616   -0.20451792983007   -2.18017846754459
O           0.63602677308009    1.08981710168788    1.65541377359417
H           0.48906865079556    1.53633620661809    2.49134661122879
H           0.13016112302859    0.22720756221940    1.70446147692752
O          -0.50479349711030    1.80036168321772   -0.54705078673344
H          -1.26852254078477    1.06531543868173   -0.45414932202332
H           0.00513126556704    1.70455675059682    0.31990151609168
H           0.13983288185890    1.41251946502884   -1.31493750428919
