    19
        -40.91624652
S          -0.04454366596476    0.49416942705221    0.77328639377804
O           1.32234193087190    0.72337289808098    0.37499563230539
O          -0.93352525189868    0.53757050018700   -0.48372197082921
O          -0.28879245832736   -0.70930493035241    1.50198235511289
O          -0.55293424725556    1.68916628624306    1.60506686752667
H          -0.10667416612246    2.49946891495563    1.24377895480750
O          -2.21632291726057   -2.07642991089366    0.07286184940072
H          -2.55455732362168   -1.36412024108854   -0.47466889957808
H          -1.74204762422975   -1.64905945055390    0.80229604042579
O           1.09514698339455    3.35450652945623    0.49649084786476
H           1.71978085241802    3.80073534141364    1.07374548337196
H           1.48514885487971    2.49114914206082    0.26389879476368
O           0.38170018990240   -2.65739389926675   -0.50335096690903
H           0.59981425949323   -2.29646600380198    0.36338149840304
H          -0.58749208449842   -2.77209580263124   -0.47803453566273
O           0.67675666184304   -0.56494566825442   -2.04765079821936
H           1.47990566568607   -0.16079633178391   -1.70189588012022
H           0.62942800613404   -1.46883004892094   -1.63070798953942
H          -0.36313366541418    0.12930323816051   -1.25175369688484
