    19
        -40.92158998
S           0.58248480477156   -0.29545260801767    1.32416000359398
O           0.84940976750812   -1.00539940848812    0.08220027292350
O           1.66284666687313    0.52251109966117    1.80420560233239
O          -0.68254831253802    0.44536943507752    1.23344887317599
O           0.34826863780942   -1.43203779215038    2.40340487245965
H           0.53107334356004   -1.00460255049600    3.23455635555161
O           1.03946323480012    2.45334872272389    0.07972488008723
H           0.24439690423106    2.79395254032914    0.49636586325780
H           1.43196526520486    1.84188736900230    0.73317941626191
O           0.52483008152980    0.76590661703607   -1.88617564085764
H           0.91313532563858    0.02973511963506   -1.37339235428437
H           0.78202111484171    1.56530723358600   -1.36826304690222
O          -1.19336242628852   -2.27274459979139   -0.95541468819577
H          -0.89751544045280   -2.75841374399799   -1.72805444204334
H          -0.38174202409729   -1.98959036346564   -0.47181068127867
O          -1.73752352699797    0.22557177483001   -0.99722408828840
H          -0.85760852208599    0.53439714618892   -1.52522346303283
H          -1.74072364379147   -0.78623684225718   -1.08387063769509
H          -1.41887125048595    0.36649087059621   -0.00181711711168
