    19
        -40.91774917
S          -0.14025848728246   -0.26422821087473    0.95568571033779
O          -0.76911484213847    0.69366044481842   -0.10198291669479
O           0.65103937289868   -1.24961789902901    0.27536445824695
O           0.54859191191599    0.49715974770183    1.95205394491820
O          -1.39152717539919   -0.89476191916582    1.56404279403649
H          -1.97278232215446   -1.19365556405357    0.77891542141329
O          -0.53506587518121   -2.49403407879829   -1.72578840698923
H           0.03854073907080   -2.03595861313840   -1.07364212833367
H          -0.31667034520597   -3.42584669210878   -1.66411537442835
O           2.66625889522408    1.87276764834972    1.11263626291590
H           1.99945703828387    1.27943123669045    1.51349235986533
H           2.92755941828922    2.48669937710015    1.80184657814462
O          -2.65935351430943   -1.47122288694725   -0.55560950221408
H          -2.73851594522508   -0.59923214614753   -0.95229689933748
H          -1.96780361658729   -1.94542187890254   -1.08441967139921
O           1.08781277028420    2.22254317155051   -0.99578683100849
H          -0.05087073348619    1.26893763321652   -0.51456282556045
H           0.81881147180016    3.14346362009904   -0.95741331550486
H           1.80389122923451    2.10931701958915   -0.32841967836221
