    19
        -40.91329940
S           0.83678864230585   -0.94566067850497   -1.14350747283131
O           1.60108351814874   -0.05676132505888   -0.31267369045300
O           0.79216006914389   -2.32369856397834   -0.50130203282258
O          -0.45581676680117   -0.47983006685848   -1.53237597418854
O           1.64356678665819   -1.21508630676120   -2.46168111747216
H           2.54173709860090   -1.44512147500600   -2.22919787674697
O          -1.74635981141307   -0.44093977014285    0.94266559902286
H          -1.56348300991863   -0.48324721817255   -0.00609125444629
H          -1.68243198124274    0.50841159423979    1.19042968557450
O           0.13246275498727    2.16011188116738   -0.92942252415990
H          -0.37072367681357    1.52257189846449   -1.45097933243534
H           0.89447233061208    1.65462040883523   -0.61232795955872
O          -1.32100747971885    2.17996963276485    1.33384409239055
H          -2.02647641622829    2.82666504499025    1.28418789935770
H          -0.75890985662488    2.31611656543150    0.53908213123474
O           0.38513023401967   -1.58922502537210    1.82395846540833
H          -0.52676334685853   -1.19562935295027    1.65173949196593
H           0.63308487450938   -2.15107717109954    0.53834284578484
H           0.99148603666238   -0.84219006199301    1.87530903441778
