    19
        -40.91966056
S          -0.21318797209640   -0.01388607832314   -1.69904624945622
O          -1.60163530163753    0.24792618869250   -1.28963350392260
O           0.60300476125860    1.18035852047218   -1.54525506851516
O           0.33290814878744   -1.16714653920191   -1.02749738975542
O          -0.26957335598434   -0.34114480226047   -3.23770482100214
H          -0.61900957624321    0.46053260740493   -3.61454706489594
O          -0.44816476351756   -1.93453064958556    1.46063963705694
H          -0.39116290826681   -2.14419245485510    0.51359404731207
H           0.47458431620305   -1.65447238136689    1.67592391860443
O           1.90452992875767   -0.76170047376682    1.20457910933009
H           1.68223228123867   -0.92412287577311    0.27321114234099
H           1.79473364607941    0.18696773040143    1.33681763830637
O           0.59294313582865    1.75404929158500    0.95069361940784
H           0.59081829080703    2.70643280708071    1.06403511414155
H           0.66951650484187    1.58819659173333   -0.03379877534878
O          -1.52490340961822    0.29762894508504    1.17604255448367
H          -1.14699396618308   -0.68393614582421    1.39983061104495
H          -0.73915614674374    0.92631756890998    1.26640943709377
H          -1.69148360348474    0.27672214959394    0.12570603376626
