    19
        -40.92136404
S           0.28567992411307   -0.58663742851625    1.22353964520569
O          -1.02973538394607   -0.75282120476092    0.58043829906373
O           1.01016054637997   -1.82985533594715    1.31582221983073
O           1.02715416492940    0.49019769969755    0.60675891224923
O          -0.03723109903267   -0.12371826799799    2.70757955638156
H          -0.08911941364147   -0.93764043609149    3.20055388855944
O          -1.85210345814039    1.80233609151980    0.52952243415879
H          -1.55765910640852    2.20136217654014    1.35002323182048
H          -1.70812009838150    0.84239684147344    0.62935087624608
O           1.73356872898366   -1.60129908653476   -1.20783410214015
H           2.38654918512666   -0.89919050437408   -1.13886675902308
H           1.53668622850355   -1.86311713571165   -0.27981706889748
O          -0.03885149655335    1.75798882980763   -1.42323051539527
H          -0.84297317959899    2.04115736982623   -0.93464096421899
H           0.57027324923429    1.49423417710225   -0.69597319023071
O          -0.52922497321357   -0.62840651317401   -1.87473313003618
H          -0.34515988959323    0.45025216620511   -1.84984573863490
H           0.39028544578029   -1.07373299588449   -1.80496192872211
H          -0.91017936453130   -0.78350645314376   -0.93368567621295
