    19
        -40.91833249
S           1.04153558563849   -1.00979776214973    0.93497339969542
O           1.39588257683399   -0.98115332863185   -0.49276566887997
O           1.86707885040007   -0.11890326974954    1.71170143440689
O          -0.38414360936494   -0.83058177761559    1.12658082747700
O           1.36687184482529   -2.48085066984573    1.42483696182169
H           2.31582450640050   -2.47971922590774    1.50577658040573
O          -2.18629916005350   -1.24141607745658   -0.68930802338403
H          -1.56555942309260   -1.22943861735751    0.08339796081908
H          -2.94345910371763   -0.70851083951627   -0.43787382365916
O           0.18002847291453    1.87072403795119    1.37053801335145
H           0.94220086862398    1.27447289826564    1.53103620005223
H          -0.56541629652163    1.39494239583814    1.74793381070889
O          -0.32338500957124    2.20777433100717   -1.17575322472926
H          -0.15193594938409    2.12322347193972   -0.19658410377948
H           0.37800429667385    2.76377590596941   -1.52003832202301
O          -0.32199519526912   -0.17675676479154   -2.05029910525527
H          -0.35651751966053    0.81648457694682   -1.77871506725952
H           0.46986614729855   -0.57475195710077   -1.43676958207837
H          -1.15858189297143   -0.61951734779143   -1.65866829769022
