    19
        -40.92071443
S          -0.94046072960814    0.26526257519285    1.11433597397757
O          -0.84797591070116    1.55608964689162    1.75680591910826
O          -1.26446856307808    0.39287485441700   -0.32039388729287
O           0.22411970129885   -0.56967113480483    1.29840502513563
O          -2.17119858255211   -0.48187165091794    1.76514643850342
H          -2.76712739368833    0.22319702151032    2.00170984692684
O           1.47904082378087   -1.45335849975313   -0.83398105723988
H           1.14950685205544   -1.34781953485553    0.08836858249298
H           0.72862881019594   -1.88070949204254   -1.29855763691800
O          -1.00052372219300   -1.88913768434789   -1.70503559531418
H          -1.47894515713201   -1.81589940706819   -2.53217441346797
H          -1.25051927294646   -1.11181172694478   -1.16699195876607
O           1.62891265106854    1.89494471890425    0.98046449011448
H           0.71710593647103    1.95020502955201    1.35286880397128
H           2.06156856146809    1.19854611046945    1.48327832865277
O           0.99751616215474    0.93203830379630   -1.28411569492725
H           1.38447676898096    1.41907466866628   -0.46307574054515
H           1.34302689455211   -0.10824621966447   -1.20081966248116
H           0.00731617888982    0.82629240225756   -1.03623777572541
