    19
        -40.91624614
S           0.65707512806695    0.58393336156983    0.25964324792888
O          -0.59671183171144    0.09982265002142    1.01231614068804
O           1.45745663213666   -0.56560001417616   -0.08281241872739
O           0.27674348519818    1.42584467574739   -0.82933370145246
O           1.39191342493368    1.43664814220500    1.31343393965881
H           1.90254761435596    0.80554592350620    1.88576664954876
O          -1.41634160346989   -0.34867270033098   -2.33420796033275
H          -2.09123367219955    0.25609158703436   -1.97107294033162
H          -0.60810278703105    0.17655226881246   -2.34328125388878
O          -2.47831638797411    1.58196592963755   -0.73198550869447
H          -1.54260069764083    1.83252425064165   -0.76808898485074
H          -2.63265131669947    1.26785856450086    0.16196540455448
O           2.72082470315168   -0.58611718872606    2.24009142977913
H           3.67891505172079   -0.53803057151433    2.19283670285834
H           2.40741557255199   -0.92214482936435    1.37965662625269
O          -0.97327698998127   -1.97541385968423   -0.33161039285547
H          -1.24717688672288   -1.51833623705431   -1.17386221691118
H          -0.04613071299437   -2.20855049208358   -0.45056058310060
H          -0.86034874569358   -0.80392145075675    0.57110580989794
