    19
        -40.91966074
S          -1.68373951445679    0.31242303642275    0.00113012300880
O          -1.37393389055665    0.68830296492175    1.38932082582546
O          -1.22658591211343    1.33735979534608   -0.92442697656209
O          -1.19018065959082   -1.00420907045225   -0.31794808980537
O          -3.25441559359634    0.26856040024086   -0.09492778269911
H          -3.50656495859992    1.16304129991031    0.11282824681333
O           1.31905731000478    1.46411710326188   -0.67222930157284
H           1.60960919100342    2.37324610554781   -0.76641196824988
H           0.33381757472233    1.46352322265631   -0.85040121271630
O           1.02183583033390   -2.08014447964761    0.84784693190228
H           1.37204880452896   -1.96829211488767   -0.06955056885436
H           0.06275248978198   -2.13488791104145    0.70446592700295
O           1.22122421916067   -1.21404764732083   -1.63868696511567
H           1.51937892586242   -0.29729136060738   -1.62634879863143
H           0.25869494000329   -1.17860053197412   -1.51329472519074
O           1.05141497561282    0.29482570938751    1.61202466306258
H           1.33726186706132    0.78443234480998    0.77570291271452
H           0.00434494431623    0.48035850107396    1.64857108346448
H           1.12397946653391   -0.75271734765144    1.38233570558815
