    19
        -40.91344949
S          -1.48951288762596    0.96990437025128    1.12161443884981
O          -0.98371375024973    1.12960588987909   -0.22529892721330
O          -1.87845607674903   -0.48492131316504    1.33812222273913
O          -0.64948481087575    1.47533647013932    2.14859872337667
O          -2.87774917329593    1.69193950781706    1.20316727101039
H          -3.40470545052116    1.38415712203961    0.46792116479002
O          -0.22375718783156   -0.96622280863434   -1.91149430171207
H          -0.61468280751433   -0.13356986313658   -1.61064029927734
H           0.69943774408294   -0.75089630873151   -2.14380570881848
O           1.51182648811822    0.57667638621943    0.63814222442957
H           0.71869612189953    0.94182707034209    0.20560556322235
H           1.53722750622343    1.00777490532843    1.49748912769005
O           2.43585807818684   -0.30163561661921   -1.85976078516085
H           2.35086191090949    0.11762080248587   -0.99114716080230
H           3.09853254158706   -0.98906839452183   -1.77446598524319
O           0.08843889311325   -1.75509796575778    0.54804489921508
H          -1.05975828988765   -1.12536916514392    1.04768200266312
H          -0.06081516115792   -1.67152800876684   -0.44005023902793
H           0.80175631159010   -1.11653305999925    0.74027577926429
