    19
        -40.91597561
S          -1.09382180007767    1.46392543543078    0.19198092339163
O          -1.21202196862347    0.54185155482376   -0.95425368795625
O          -1.80486139755980    0.93779480345531    1.34396535546409
O           0.26924203467117    1.83510730583233    0.45357407101651
O          -1.85966096735458    2.77290728112393   -0.25253679575830
H          -2.76390783806773    2.47820276178162   -0.29786186702043
O          -0.64281653948839   -1.24226013338348    2.08026010518170
H          -1.26099300536035   -1.72098203563895    2.63664245922291
H          -1.05098973156247   -0.34863912798903    1.91899066992056
O           2.33740127663584    0.90511936862892   -0.84391249007552
H           3.05803958642226    1.15020005738224   -0.26035845636127
H           1.52812715564045    1.29273073334886   -0.43310545927125
O           1.88372315610049   -1.63599966023816   -1.19854598024994
H           2.10576318725506   -0.67525981868889   -1.04000181677381
H           1.94033578921234   -1.76475807432043   -2.14754869486599
O          -0.51719012243744   -1.74907947631369   -0.40319631921069
H           0.47244022583499   -1.77680465437750   -0.71098701644635
H          -0.51968425995769   -1.68818010024678    0.62075383401765
H          -0.86912478128681   -0.77587623061200   -0.70385882420238
