    19
        -40.92453850
S           0.82604583927453   -0.28599691645419    1.24824158315570
O          -0.40293969276343   -1.06613184784067    1.34405128033866
O           1.62144723943326   -0.71148748354947    0.10236022396040
O           0.57951954048939    1.14073045280994    1.25386262656991
O           1.67371597541446   -0.59871043379573    2.54383701683388
H           1.82753470877948   -1.53858645053447    2.51622601849228
O          -0.57085216238623   -1.82486766182863   -1.12850608540880
H           0.37430801950966   -1.90331858283020   -1.30370309375311
H          -0.61476126010165   -1.68845654789046   -0.14786350527484
O           1.17984416103590    1.35886383703335   -1.40789020790530
H           1.14824024631968    2.03059417258542   -0.71682195674112
H           1.51516829890302    0.55604156662356   -0.93600402763792
O          -1.93279959860587    1.10404702353819    0.59698410798295
H          -2.16053756993925    0.26553093080106    1.01588580244178
H          -1.03179652489370    1.30243168997529    0.95244382048768
O          -1.18109669449848    0.54118798698294   -1.74202619645920
H          -1.61683543556667    0.84003917498187   -0.83836993468925
H          -0.22252555315789    0.96156164816032   -1.73133724389046
H          -1.01167953724227   -0.48347255877840   -1.62137021850367
