    19
        -40.91188303
S          -0.93338387736092    0.68664866980526   -1.30246353531343
O          -0.87630958441039   -0.81413301742697   -1.00392706645260
O          -2.15779371120150    1.22892355555737   -0.81113978541116
O           0.28512498553169    1.32001466286505   -0.90242996079926
O          -0.96044178007653    0.70681585563737   -2.87455440976053
H          -1.86326498728592    0.57827128514624   -3.15972579922546
O           2.25228193721046   -0.74901911596855    1.76242750513065
H           3.09321528793551   -0.35933763753029    2.00618092093253
H           2.26907816757907   -0.85663938756211    0.78688677141527
O           2.01535093757657   -0.78239109892756   -0.92709877067952
H           1.56897159640490    0.07635297406798   -1.01012637271195
H           1.34976768728622   -1.43949243076999   -1.14775990757292
O           0.05548170834856    0.78643211072277    1.83260801391811
H           0.84317359627972    0.21122459012815    1.96735245530309
H           0.20558606120701    1.23851218254557    0.99157705858377
O          -1.95389674973357   -0.69726145854383    1.20637714402735
H          -1.35531674317013   -0.91722104612594   -0.04383727920883
H          -1.20822023398900   -0.17417825209487    1.64018430646853
H          -2.62940427816410   -0.04352244151291    0.98946871133817
