    19
        -40.91983420
S           0.06090590118848   -0.89405425839669    0.16586630998119
O           1.17367162768203   -0.28239615454046   -0.52752134141877
O           0.56710914641940   -1.70614201582649    1.35672103611811
O          -0.93457190882284    0.05248524365711    0.59360182680499
O          -0.57949255795636   -1.95557756302068   -0.73548760986096
H          -1.32274576426982   -1.48098601534053   -1.26073212666689
O           0.04230134973264    0.74220363104601   -2.74253005187933
H           0.56385865744781    0.45465346006090   -1.96946190740341
H           0.50076949832307    0.41001193257696   -3.51717605276011
O           1.77151140835338    1.51236308267696    1.40900613791542
H           1.74175241930644    0.88981214738600    0.66206949033134
H           1.42214207504537    2.34318330071299    1.07922479227328
O          -2.21110510578816   -0.38204800102422   -1.84816080891522
H          -2.34553016411821    0.11263103522130   -1.03030142907047
H          -1.53556010505649    0.12381194225923   -2.35343460343770
O           0.25451803384363    0.09359500780598    3.09745407418393
H           0.48920622776617   -1.10817958007192    2.19001466047850
H           0.92728904815747    0.69977599815865    2.71537603044674
H          -0.58602978725785    0.37485679667498    2.71547158289808
