    19
        -40.91892649
S           1.40178986304174    0.13741990339915   -0.26577023028591
O           1.64413363268034    1.54576347239869   -0.49342159694666
O           0.92232552388071   -0.10891658339466    1.10710437975055
O           0.53779968963015   -0.48958053567267   -1.23513191341248
O           2.80013768344470   -0.59513299331370   -0.35921886789719
H           3.40788584288727   -0.00534796244725    0.07724547110150
O          -2.05136649466126   -1.15510655435415   -0.60424029575553
H          -1.43431117945099   -0.85627533322454   -1.29136045654313
H          -1.59308924295594   -1.93419706869047   -0.21562862190552
O          -0.02254740386517   -2.64222602179241    0.29840855423452
H           0.39185465168071   -2.08866618355781   -0.38437109336468
H           0.31328182534706   -2.29509663148272    1.13005688320250
O          -0.74375149415549    2.56377866871600   -0.38659519049878
H          -0.66696082448312    3.45593795372002   -0.04133134994820
H           0.18193656483258    2.24307115407620   -0.53929246382406
O          -1.45334275256540    0.60502595094106    1.06817929446827
H          -0.46256284866752    0.28656052106927    1.21898770115484
H          -1.32913046755630    1.45973785202420    0.51887171776789
H          -1.84408255899431   -0.12674959844553    0.39750807871536
