    19
        -40.91759259
S          -0.96074377114965    0.42973802533496    0.39901322393311
O          -0.92244972466490   -0.67140561186843   -0.53181865040161
O           0.52709287748485    0.77927395869037    0.74234443581406
O          -1.63376849828455    1.60401488358188   -0.05146006457783
O          -1.51419958295889   -0.02821479684125    1.74243793027065
H          -1.28886154252383   -1.02755698050862    1.83065794962690
O           1.77065554423006   -1.52442591143199    1.68185218202974
H           2.52294077375064   -1.65585490644521    1.10140994095897
H           1.48396557310543   -0.60636335144745    1.56597659136057
O          -0.76946852904280   -2.42970837752842    1.54013374039251
H          -0.86501017989827   -2.33032843616642    0.58177327770151
H           0.18690883518646   -2.34512131520117    1.72788389178525
O          -0.39302229238169    2.48654566278756   -2.27285571367410
H          -0.91072991905112    2.33286771224904   -1.46021372503616
H          -1.02899766110394    2.58362891722764   -2.98414518681534
O           1.28792614476419    0.51649322007749   -1.65055617888357
H           0.87024784354827    1.30886128314842   -2.05380376949652
H           1.00100455641936    0.77047627116931   -0.16474549689142
H           0.63650955258787   -0.19292024684380   -1.74388438808427
