    19
        -40.91893430
S          -0.75729001062702   -0.16750724138034   -1.55334071450929
O          -1.18148392592004   -1.54214159062333   -1.63579458805137
O          -1.45219198664088    0.56267126489295   -0.48207053373468
O           0.67658745968080    0.03073522077800   -1.47355260117299
O          -1.21704288786840    0.52685558326447   -2.90474236473428
H          -2.02916123944128    0.07468167955817   -3.11242673248855
O           0.53186001556674   -2.11282295732859    0.28801638304058
H          -0.18531301966862   -2.08218192150217   -0.37756572283280
H           1.28017893003330   -1.70028377029424   -0.15375870121387
O           1.89618121675209    1.68565797588118    0.10271337102005
H           2.04941543990922    2.50284252672438   -0.37513057300350
H           1.54262100547641    1.03722576545078   -0.55989029978836
O          -0.03605569046976   -0.87118854271153    2.52647935755174
H          -0.87849212593854   -1.22683641350425    2.81616388653837
H           0.23112715598446   -1.40653142080595    1.73132096998794
O          -0.22503311917035    1.41868451109382    1.47079529677540
H          -0.12243386362563    0.53941785597548    2.00917609654064
H           0.68984454282821    1.61730921500860    1.05335990048110
H          -0.81331786690561    1.11341225968805    0.63024758954342
