    19
        -40.91983418
S           0.06194299894664    0.48663628273859   -0.76494708914839
O          -0.20215541502091    0.92317452773178    0.58018651392254
O           1.37750485523023    1.09502132138175   -1.26344579262141
O           0.11584281158945   -0.95265940369946   -0.90092166221196
O          -0.97642389355835    1.06544493428695   -1.72440093831117
H          -1.84734577129592    1.19323962995530   -1.19216524053648
O          -2.88392092021810    1.15905834928588   -0.07536139545273
H          -2.95019321372375    0.18442259232103    0.03202563822867
H          -2.30442004357153    1.45356614055331    0.63833473427575
O          -2.30580901569897   -1.43978734401747    0.20742048425362
H          -2.10690706602339   -1.77070967059648    1.08599651957387
H          -1.46288030135961   -1.43335320596161   -0.27817353401304
O           2.24670826212927   -1.63991979797441    0.59058092471382
H           2.85852454794966   -2.14897916176764    0.05471468078091
H           1.43828939814767   -1.52914071628265    0.05529665338999
O           2.56066703187358    0.98721641966303    0.96452931688642
H           2.63446177563450    0.00665058612436    0.99163591957353
H           1.99542396561290    1.16180625170765   -0.44649043071840
H           1.75069001317938    1.19831227456092    1.44518470766597
