    19
        -40.91893433
S          -0.84630979123485    0.58591386811825   -1.39872414164702
O          -1.64944746856372   -0.51592245863120   -1.86474562846032
O          -1.19682928429940    1.09124893304382   -0.08587831962034
O           0.59335874775409    0.29797004574933   -1.48688710036619
O          -1.09995184451882    1.78480927467232   -2.40778850393656
H          -1.24161750146221    1.33977544727556   -3.23787504967468
O           0.47077081233567    1.74216221382290    1.78633782774322
H           0.63817570637882    2.68465039338892    1.72921886275317
H          -0.25830658358984    1.54892038765795    1.14162954341919
O           1.09621369003473   -2.17032702801459    1.11411760707412
H           1.36737106441720   -2.84905949317060    0.49291439926221
H           0.12442430731228   -2.02482464234722    0.95772487008765
O          -1.39691477007529   -1.61185026821243    0.52259875974506
H          -1.54707223005154   -1.39351447961573   -0.41967558623828
H          -1.69420391615293   -0.82877033181173    0.99559586620374
O           1.97995301430408    0.12785223461319    0.53809344164082
H           1.49675399770528    0.78427489591070    1.15983602893664
H           1.71671751094400   -0.82505378744980    0.84787389705993
H           1.44691452877509    0.23174478498422   -0.38436680401923
