    19
        -40.91898908
S           0.61970295475700    0.12243509098107    0.90111464529608
O          -0.56459726452591   -0.65734725878222    1.19492294679947
O           1.27099319507486   -0.35287250015426   -0.32783425175588
O           0.31691204359236    1.55242662057007    0.80624445774441
O           1.64305818748125   -0.02701315972344    2.06125075854809
H           2.00495609571140   -0.93069237277121    1.94375507623925
O          -2.89308452143099    0.08382137071621    0.36611402249527
H          -3.19926295151107   -0.63975116114999   -0.18535020215242
H          -2.07280503923983   -0.24844067172273    0.82181129612486
O          -0.22520648256537    0.35622597047431   -2.32448431731456
H           0.36182869916916   -0.00108908336737   -1.60476108902532
H           0.36273548605919    0.74346087073367   -2.97655717488635
O           2.51108089429160   -2.27046651592204    0.98690477166072
H           2.06344851220755   -1.77199269576457    0.27542716680591
H           3.44377255273651   -2.29725791529056    0.76059137305392
O          -1.54166288142563    1.87863862944388   -0.77420329205364
H          -1.10744531373132    1.34321267045615   -1.53303505967738
H          -2.23902566213503    1.23730116365957   -0.34664085177036
H          -0.75539848564009    1.87940092788830   -0.04527030637420
