    19
        -40.91954955
S           0.06735826737611   -0.52030018803547   -1.03967200646252
O          -0.45433510833417   -1.35297928311213    0.01936813189763
O          -0.78388171375091    0.76086018583419   -1.11600350657488
O           1.45422393923583   -0.20547556868721   -0.94812053453983
O          -0.23600314377786   -1.18256915232742   -2.39873155809958
H          -1.20035635561837   -1.40075648630522   -2.34198664910708
O          -2.66097988806633   -1.45268071080724   -1.50915095293721
H          -3.02026187883452   -0.56368641111276   -1.44048320092498
H          -2.16928774957055   -1.61573098556324   -0.68778451026296
O           0.73744912095412   -0.98404992956901    2.43252473084010
H           1.19564903497709   -1.79888425537014    2.64614868626739
H           0.23186374781797   -1.15933424105045    1.61900069198767
O           2.06334724988667    1.11682945404349    1.36156964839060
H           2.18288651250788    0.64493460925363    0.52217343664443
H           1.66885315164562    0.45485512197007    1.96373345054257
O           0.07751180691456    2.49779528885166    0.47023585739719
H           0.85212864948871    2.03555284392563    0.92505537722548
H           0.45566999559169    3.22723139367065   -0.02671503017458
H          -0.46183561850053    1.49838831440181   -0.45116206224193
