    19
        -40.91384619
S          -1.62101328482683    1.05893697969576   -0.13903304777067
O          -1.96111988532367    0.26074433402531    1.05075458334248
O          -1.09991366619325    2.35419142012022    0.19750085094675
O          -0.74845423095681    0.29802455971678   -1.02804403774200
O          -2.97550803355554    1.26258752973863   -0.92808341245579
H          -3.43935682723878    1.93840615088279   -0.44117208138610
O           1.29364952149920    0.98494767569662    0.46851810582200
H           0.60589835672550    0.82551160491154   -0.21886730989318
H           1.10556831134380    1.87961721931010    0.76983224744175
O           2.60810286206035   -1.04188213851448   -0.96538352157490
H           2.73826843187230   -0.73449141802874   -1.86420573001562
H           2.45533693420831   -0.25561061404971   -0.42197763590529
O           0.19582804241786   -2.13310097566965   -0.47440355863025
H          -0.30348301716286   -1.40565739468999   -0.90160544885416
H           1.13341890721866   -1.97758249704642   -0.72293350770969
O           0.06127717141215   -0.96418435382831    1.71564027975260
H           0.12431353339260   -1.62894251614598    0.86752755724276
H           0.71552305846409   -0.24317887232149    1.49268528871327
H          -0.88833619505455   -0.47833670419858    1.54325038901912
