    19
        -40.91624657
S          -0.35431670539799   -0.03421563330074    0.84649966336574
O          -1.38198512588513    0.71118048208493    0.16259293471454
O           0.12376157211731   -1.16915558794778   -0.07888301424576
O           0.76495971903834    0.72391019982812    1.30654006293303
O          -0.96636418691257   -0.79072915188284    2.04277064355654
H          -1.88735067130988   -1.04938791882144    1.77590485960027
O           1.88052015632345    1.60519250947393   -1.19500332756447
H           1.48197041309492    1.87950835316900   -0.36137847292402
H           2.55452513620325    0.94901508271131   -0.93383952330517
O          -3.31531014438012   -0.91012462671436    0.95384828525833
H          -2.87885095269458   -0.21372960307910    0.42842025494737
H          -4.03906863680954   -0.49415832996099    1.42888752907773
O           2.99007060807397   -0.46570827787305    0.18397554308884
H           2.61665537193773   -1.31230426661669   -0.07173735200902
H           2.37624446230173   -0.08928462379584    0.83297122917975
O          -0.00479112072685    0.10923113794747   -2.22457223497643
H           0.75382785642984    0.72650719213394   -2.03307704254701
H           0.08948493367790   -0.78255340448244   -1.04353985587750
H          -0.80398270231123    0.60680647701729   -2.02038016523509
