    19
        -40.91790597
S          -0.27023613003583    0.00574294474922   -0.99009892268598
O          -0.45204560421435    1.42148421449094   -1.13446939707999
O           0.94615159110351   -0.38040538672016   -0.32198242279295
O          -1.47533787255264   -0.61384962118620   -0.30706918455205
O          -0.30481960296422   -0.66994850974113   -2.39643223218897
H           0.44743130503836   -0.26838160619784   -2.87952453804864
O          -1.05812781122613    1.69418692757674    1.51384641451827
H          -1.98670529730313    1.45397828873373    1.54266181068886
H          -0.83887983443065    1.81257569773477    0.57667245475339
O           0.69889767145549   -0.19740038585256    2.39663819058294
H           0.09928830568977    0.57070631149671    2.36070785728219
H           1.15499729906927   -0.18458604834409    1.54161804309672
O           1.79379644248050    0.88032578836918   -2.69471945326296
H           2.19591995453004    0.52638997335606   -1.89375912981664
H           1.28592988892363    1.65219893524771   -2.41921247114184
O          -0.73011532207011   -2.15769880343980    1.50446052022837
H          -0.07701224514517   -2.75605480052418    1.13257515095783
H          -0.21056098322922   -1.47090737835864    2.02818158577544
H          -1.21857175516817   -1.31835657130856    0.43990572371933
