    19
        -40.91966074
S          -0.54282465884707    1.61996171268191   -0.11696716608306
O          -0.89570546499638    1.35447473139414    1.28627535093401
O           0.89219382769930    1.81079028127930   -0.25976967827859
O          -1.07399817061884    0.61222513103651   -1.00091330942706
O          -1.23091338918001    2.98711259475459   -0.48513766509991
H          -0.82739028533068    3.60011828488716    0.12166269364639
O          -1.46775834200365   -1.96837816954464   -0.23353420241223
H          -1.85942009144542   -1.13527952018339   -0.54374281516027
H          -0.73001508921023   -2.11283001253908   -0.87501810729449
O           1.99628615513609   -0.38978737791916    0.44606730503107
H           1.64718074696443    0.49447521374184    0.13201924103577
H           2.82120869565395   -0.20816685498177    0.90029457486527
O           0.59103215805859   -1.43683789519374   -1.79955662125794
H           0.11213598952257   -0.59285704069774   -1.84057990958550
H           1.36518618233234   -1.27065507512841   -1.24942558223635
O          -0.19613432707019   -0.97977823500680    1.67175865859330
H           0.73495120235439   -0.89943997706522    1.28782266926330
H          -0.55911215376667    0.01926840605329    1.62392711059596
H          -0.77690298527245   -1.50441618753294    0.93481745251009
