    19
        -40.90776130
S           1.56463419880077   -0.98410103431910    1.30215581886012
O           2.72634977620313   -1.19014159652114    2.08555333629606
O           0.81456868189459   -2.29365185727367    1.08268672053940
O           0.64805951042551    0.05714777313853    1.66951613201852
O           2.04806214838635   -0.60247254271565   -0.17283551097266
H           2.77500297435250   -1.18594031422831   -0.37890383362191
O          -1.54912170663866   -0.51909651263228   -1.68954371810959
H          -1.51856974624643    0.46129464737519   -1.59678194677353
H          -2.27677452333866   -0.71338656068031   -2.28197764627096
O          -1.47661361631828    2.11115150648226   -1.24602686718286
H          -0.57150847531396    2.21484736593613   -0.87263557209290
H          -2.07012330913047    2.52675568516372   -0.61856075637869
O           0.93392581636769    2.09977153265090   -0.08740286404143
H           1.55803136889992    1.67082854373904   -0.67750072598996
H           0.81396599096283    1.47826180227273    0.65183200958954
O          -1.48093661559879   -1.37671500819023    0.79700062018051
H          -0.19152635305649   -2.04804402668077    0.93605877563952
H          -1.19666566398640   -0.57609605728530    1.25956791901576
H          -1.55076046666696   -1.13041334623618   -0.16220190070632
