    19
        -40.91359131
S          -0.75033088037778   -1.48002184922848    1.07953566871930
O          -1.34835927814860   -0.14898653007009    1.48600404929183
O          -1.57296875263597   -2.15189805744702    0.12305205868729
O           0.63007194279211   -1.33220618285591    0.70119114835601
O          -0.77994629739031   -2.28416011658221    2.42840517474968
H          -1.68963997955444   -2.53292243093610    2.57876261907661
O           0.90069577716498    2.72259559137187   -0.02862537613062
H           1.23618271594325    3.41065238944612   -0.60508898495077
H           1.54162126720810    1.97725777151391   -0.07224063637146
O           2.36636909385988    0.50954497947378   -0.38525817015804
H           1.95231011693995   -0.14023528968376    0.20330013368722
H           2.18060365228306    0.20345101092921   -1.27757029550163
O          -0.10274091315100   -0.74034450200003   -1.83377944258954
H           0.27878407254957   -1.09281178753153   -1.01183755811260
H          -0.81665581198435   -1.34684933218550   -2.04965228005926
O          -1.25384060837898    1.29015573536690   -0.50733769533786
H          -0.53102227012599    1.93977040773434   -0.30175261254680
H          -0.87326299103191    0.65754219316282   -1.15958938857010
H          -1.36787085593365    0.53946599947917    0.63248158773517
