    19
        -40.91070911
S           1.72788222212962   -0.75106329110387    0.04228083179552
O           0.88330347940660    0.04062140199710    1.04175995239750
O           1.00089781067316   -1.90496305501355   -0.39410558871394
O           2.25145908201768    0.13449910736039   -0.94138843715527
O           2.93765274845066   -1.27161964840986    0.91437599811250
H           2.74238394521297   -2.17802194540678    1.14188766086210
O          -2.80356799968323    0.00866671508360    0.36159052961991
H          -2.20881799563586    0.76673495261941    0.12769158907899
H          -3.48413873022604    0.36915274223713    0.93218371619693
O          -1.01087662386330    1.91137139246004   -0.04144299469720
H          -0.66331237624585    1.85398357503227   -0.95366839788720
H          -0.28969472322544    1.60644278476867    0.52076728558845
O           0.37258830961030    1.50078284523572   -2.33061009740115
H           0.80231525016642    2.19134746965903   -2.83889557614327
H           1.08514298769149    0.97490783025771   -1.92534583461286
O          -0.97687975414968   -1.53535895415434    1.37519573703325
H          -0.66099876719317   -2.08933309714657    0.64496338803763
H           0.05851852435293   -0.60358346934547    1.30462457252269
H          -1.76385738946931   -1.02456733614188    1.01813568536220
