    19
        -40.92021798
S          -0.81406613646842   -0.00120828667076   -0.67706293348073
O           0.45710114804738    0.14967013077171   -1.36320823713100
O          -0.70248151415755   -1.11985023647280    0.34225353683998
O          -1.32101709970405    1.19178305838394   -0.07650252200003
O          -1.85200058200614   -0.53728437088552   -1.68748926872570
H          -1.36554097174776   -1.19068660463458   -2.24919118435007
O          -0.04000469049161   -1.81636459960430   -3.04938176638210
H           0.03731700074966   -1.55532590628499   -3.97034534165042
H           0.46779977035951   -1.16773116961226   -2.52557945503695
O          -1.00309130686595    1.77615055934217    2.52636000052773
H          -1.14642997767937    1.75696443357356    1.56103805591499
H          -1.86911602819581    1.68687290808813    2.92859237936264
O           2.34908206797632    0.64232847662869    0.48044299892244
H           1.71655990267002    0.58390310615789   -0.26078151335890
H           3.13611686865556    0.16638750145439    0.20843356379183
O           0.61438536495797   -0.29887999391551    2.25899229300432
H           1.38743247094346    0.07610869710677    1.77675681419742
H           0.07944937081150    0.48066193369767    2.54950202970865
H          -0.13149563782907   -0.82349962708044    1.22717054990567
