    19
        -40.91295821
S          -0.48858015470310    0.69863967461739    1.27853194609838
O          -0.17130037835236   -0.79175782601516    1.30126855695849
O          -0.23087651439919    1.22539348401425   -0.04030528212978
O          -1.77935964799450    0.97662429170646    1.80969820773364
O           0.59883061553810    1.27502223537110    2.24624117906101
H           1.45592962616363    1.16240081680561    1.80444887372657
O          -2.89915369434229   -0.04820052347593   -0.49923180899968
H          -2.61640848114812    0.48751622335615    0.25697984970418
H          -3.67278336154878   -0.53821263022609   -0.20953276216251
O           1.72564207637835   -1.02137269028640   -1.76408008601612
H           2.19171036163296   -1.83866872249872   -1.57690001967734
H           2.05128450941562   -0.36291856733997   -1.12809199332763
O           2.32529733442230    1.03212602119515    0.06941730102205
H           1.37574681746303    1.19917208115888   -0.14317850439535
H           2.81844664914811    1.77695036069842   -0.28224416563943
O          -0.76364502658800   -1.63674030777779   -0.94102749534829
H          -1.51336638716709   -1.02466386122463   -1.09212671788373
H           0.01587059641669   -1.32007471338446   -1.45002975150041
H          -0.42328494033707   -1.25123533663693    0.36016267280360
