    19
        -40.92161545
S           0.26114470501105    0.44984277945050    0.93038756387977
O          -0.91291288815268    1.28991121463561    0.87665989499973
O           0.00465655709563   -0.93070947057966    1.20959369821689
O           1.03843540908463    0.60949913382515   -0.37604895021972
O           1.24455888298915    1.00943220168708    1.97911341070413
H           1.32101161314349    1.97049505503908    1.75170360367152
O           0.87992361467853    3.30423477446381    0.81410958824122
H          -0.02316756794793    2.95284235129565    0.75668574704929
H           1.26828569808342    3.20507183509023   -0.05979765479860
O           0.64882965110442   -2.91810628499162   -0.49786314850726
H           0.51036073544327   -2.28995456539562    0.23463206211490
H           0.31481398155757   -3.76670947108568   -0.20268535407244
O          -2.23944252357599   -0.53446302320189   -0.61159853199121
H          -1.98187090002955    0.25453580883990   -0.10576811736681
H          -2.26963621844082   -1.24828708507321    0.03029725910616
O          -0.02580329578871   -0.85654138413945   -2.06172125061060
H           0.63473536782662    0.00153356411986   -1.17500459134991
H           0.28169497056245   -1.73262728328626   -1.74799637428047
H          -0.95561780264366   -0.77000015070142   -1.74469883477850
