    19
        -40.91370588
S          -0.86054210428507   -0.10641276447935   -0.62707274472815
O          -0.19014139829793   -1.42628689703944   -0.14732664088663
O          -1.04349885590802    0.74885571925427    0.50835009032696
O          -0.14484068363236    0.45790334052255   -1.72403186660792
O          -2.22326462330281   -0.62638043754557   -1.13630570241291
H          -2.59533724584296   -1.16709193191865   -0.39970780362268
O          -2.58564119850971   -2.33329428213562    0.80734488659589
H          -2.85141641170146   -3.20432821101810    0.50105235939620
H          -1.61809677400618   -2.30984960438950    0.80723854519808
O           1.42450149230840    1.66954953402494    1.14569438048515
H           0.46379921915408    1.52294198731712    1.09847641034378
H           1.65317978685310    2.12459645609267    0.30974970481125
O           1.56303790171259    2.54780421672683   -1.40369238543920
H           1.07584033924279    3.31922322350524   -1.69852599274854
H           1.03280567578103    1.77451651212827   -1.66627849909521
O           2.03874220538778   -0.79913148865425    0.80208439956432
H           0.76697177005272   -1.21098399923987    0.20433113215706
H           1.92217085183640    0.19730493820301    0.94477677473258
H           2.17173005424576   -1.17893630164028    1.67384294094993
