    19
        -40.92117441
S          -0.61425877624383    0.76288599253683    0.34273198239439
O          -1.46537219397092    1.83753687007374    0.74232905844343
O          -0.93634648512832    0.35767737910377   -1.08033071080111
O           0.80422821952922    0.95730726080038    0.50050873864550
O          -0.96765582188384   -0.50258267305614    1.20111533550431
H          -1.94766466286286   -0.45723772937301    1.33856608277481
O           2.56628911297380    0.97855021976199   -1.58909421308508
H           3.44232552076082    0.80497317007181   -1.23840343215799
H           2.00160848125821    1.18738773788124   -0.82546606804399
O          -3.44208236720201    0.23603266945292    1.43813327872370
H          -3.02229632187856    1.05377205786470    1.10995275371429
H          -3.79096818404944    0.43464259514207    2.31079299616702
O           1.56695647505238   -1.63326193974097    0.58007243535933
H           1.43790649890101   -0.68069945849356    0.73331163222301
H           0.89645544633208   -2.07195257701316    1.10827400642268
O           0.89693052361274   -1.07651950535996   -1.94221650903757
H          -0.19208443711643   -0.28731462349964   -1.50919397337334
H           1.57129221164209   -0.37953640766418   -2.10524388458363
H           1.19473679028316   -1.52166103848406   -1.11583949931916
