    19
        -40.91965235
S          -0.73427300137903    1.34077727905281    0.17724159896864
O          -0.40186540297283    0.39153889687286    1.24351465994520
O           0.14728337529867    1.10989865523419   -0.97810312789744
O          -2.12466152839897    1.37493059902313   -0.15026815190750
O          -0.32558853113333    2.77177537737239    0.71205259509806
H           0.61168482705068    2.84119873046604    0.55134169266716
O          -0.51242180224586   -2.00144887828756    0.10474752685129
H          -1.16356109807080   -1.79983977088476   -0.61108814589394
H          -0.64698984139539   -1.27741163762712    0.75222470109956
O           2.13776843142075   -0.00827899491842    1.58134330937928
H           1.17456789764710    0.22456060739104    1.60347804043256
H           2.30359595350249   -0.55793081349181    2.34955689038276
O          -1.99947107330666   -0.78234919910562   -1.69108749487897
H          -1.53108383173128   -0.43850965663884   -2.45496780899291
H          -2.24183402640412    0.00122697893255   -1.15854317020937
O           1.54850527376038   -0.92298488011776   -0.74372191661042
H           1.02418672909116   -0.04181846630350   -0.97448059940199
H           2.01446903255837   -0.67017901324908    0.11718312072891
H           0.71968862666754   -1.55515581367806   -0.43042370980199
