    19
        -40.91624642
S          -0.46728854414039   -0.63439493177638   -0.47593055522351
O          -0.61684838162138   -1.12806986031645    0.87072167072652
O          -0.61655965712227    0.89834582551451   -0.45356011238115
O           0.74217788964288   -0.99707086005660   -1.14272473258784
O          -1.66331154516007   -1.09191211888138   -1.33514351421257
H          -2.45448800749960   -1.11296245622618   -0.73549414366171
O          -3.25176347366217   -1.26629888279301    0.70600318791846
H          -3.63634340195862   -2.12739870434313    0.88791190231499
H          -2.37221652034287   -1.24966713106386    1.12759315453708
O           2.65533903024373    0.36192608355765    0.51733217932815
H           2.34054908671901   -0.49026973677326    0.19525665204757
H           2.70691682591729    0.91690907089327   -0.28424885517966
O           1.92550206298064    1.38086174991651   -1.90097689231670
H           1.55770968432592    0.48468981274901   -1.93506246449250
H           1.17271703885912    1.97214023011597   -1.82815225641605
O           0.53375846351679    1.29792816912860    1.73093246810199
H          -0.19906348647815    1.21386393720679    0.44524847152762
H           0.19653473135682    0.52228542100500    2.19197588494858
H           1.44667819443051    1.04909438218088    1.41831797501441
