    19
        -40.92135404
S          -1.36183254208931   -0.39097669963861   -0.65449486438654
O          -0.59673097780138   -1.57702986523588   -1.04144996890461
O          -1.82128081635722   -0.46479257772929    0.71490534847724
O          -0.63342326771136    0.83266562507797   -0.95038524696807
O          -2.64171251770343   -0.36846190801918   -1.57725602958101
H          -3.13292495571778   -1.12685790398206   -1.27682031223248
O           0.10863426908769    2.12137965904585    1.29207887436094
H          -0.18698220180875    1.78855660373892    0.42229022411428
H          -0.65361087568556    2.54568151758599    1.68977559558655
O           0.41159606186038   -0.38219066975961    2.08438133410394
H          -0.50807239365150   -0.53917134616731    1.76466836471384
H           0.51787056351421    0.59386862659396    1.98401602082111
O           1.96245107945107    0.55791598187261   -1.37860045246188
H           2.12135861379954    0.36978167587896   -2.30543135101193
H           1.01176813159405    0.80044777376714   -1.30037294826291
O           1.57403352632504   -1.43377405690241    0.16864225813526
H           1.94630402076529   -0.66103833068910   -0.37982406080487
H           1.18069880612149   -1.00334532941824    1.09213640035948
H           0.70185548600673   -1.66265875599356   -0.34825919606967
