    19
        -40.90532984
S           1.31200199461385   -1.17370208801227    1.58217996113742
O           1.08845996419595   -1.40711393475615    0.06542710968965
O           1.78030521776855    0.15962944837335    1.80528544571747
O           0.17239436748950   -1.61260340675689    2.30872743228700
O           2.50776423914276   -2.15383596227102    1.86027525241127
H           3.30233763747940   -1.73456028099815    1.53335965795832
O          -1.79668802987993    0.19791388571566   -2.40590707659885
H          -2.67016867983995    0.59326282237274   -2.37519180888363
H          -1.71971234455897   -0.35009426079097   -1.61122828084240
O          -0.37166815148630    1.52250813176062    0.79838353952711
H           0.42851541236754    1.25355110561843    1.27573389337159
H          -0.06826498515946    1.81548348786071   -0.08589337378340
O           0.23543175325311    1.93569283687598   -1.80794833265332
H          -0.40392428692667    1.28103900950892   -2.15141150193566
H           0.11911964299446    2.73344900598279   -2.32574995200097
O          -1.37964837225602   -0.76828079117303    0.17570142963052
H          -1.50922950456020   -1.24272870550460    1.00471403587036
H          -1.13606137686314    0.17289785365216    0.44452007055080
H           0.10903549220110   -1.22250814742681   -0.09097748142749
