    19
        -40.91966056
S          -0.14204946938233   -1.01627840201779    1.37066432732116
O          -0.07625113567576    0.28736448000628    2.04893206994912
O          -1.44688020351404   -1.21306594932846    0.75837332701611
O           0.95212091136331   -1.19464724398374    0.44852976367723
O           0.00736798102232   -2.10066025274814    2.50194551319494
H          -0.74396774091403   -1.93077133169791    3.06182160513156
O           0.50637840577299   -0.67191975502456   -2.22434495231091
H           0.59997860415042   -1.19012512189321   -1.40830603308235
H          -0.38017010591455   -0.29427176795732   -2.19301617432537
O          -1.71364215116160    0.62802030423236   -1.00173656711409
H          -2.62722342699051    0.91834462533014   -1.03159684247771
H          -1.68190491571388   -0.13497178513824   -0.35408603577480
O           2.14067214456949    0.87891653899954   -0.84678454976593
H           2.22414836598879    0.14589850043542   -0.21448377049745
H           1.71088701446205    0.44586633903689   -1.62413094667949
O           0.14719891195232    1.93057775442335    0.22174466005290
H          -0.60918771825019    1.58605275263266   -0.35276735807983
H           0.07801543291790    1.32393291302467    1.09256121494466
H           1.05450908529203    1.60173741168913   -0.25331924116744
