    19
        -40.92315429
S          -0.92840312897677    1.35715666009351   -0.42320917797397
O          -1.27817637496853   -0.01840774713623   -0.78261810706804
O          -1.01134633422767    1.53444903094502    1.02900049335768
O           0.33371020794250    1.75689842220963   -0.98485983375471
O          -2.04612191155932    2.29088204147269   -1.02222664013705
H          -2.74836407327278    2.20957976984842   -0.38444230462396
O           2.15420663381747    0.23587724442447    0.13667720771147
H           1.94178946057703   -0.52318768476136   -0.44775336716065
H           1.68044468371418    0.98661345067772   -0.28833145185985
O           0.85085564538324   -1.43381171579399   -1.50494627449650
H           0.04147416073425   -0.89086585015308   -1.37672280743232
H           1.07844961455475   -1.35527013340716   -2.43244536895630
O          -0.71513822477691   -1.97367850910868    0.92172537532004
H          -1.15202475324195   -1.32997522506638    0.32170903572018
H          -0.14055547701860   -2.49548804247165    0.35149263462285
O           0.57630059954681   -0.09064257641599    2.03864450020265
H           1.36908173596721    0.03350983887714    1.33257515057040
H          -0.09670400021093    0.65851901475352    1.76027372920720
H           0.09052151592287   -0.95215797882126    1.75545718672372
