    19
        -40.91628399
S           0.19678522090889    0.71233135787102   -1.04983840820816
O          -0.26421239796734   -0.73863550227691   -1.22197987664217
O          -0.59641625627953    1.32814973030225   -0.00852957996813
O           1.61045571261174    0.76795147805311   -0.86584381685836
O          -0.14331417214472    1.37654320257594   -2.40429108970694
H          -1.10599940967537    1.60830945502398   -2.37357710167397
O           0.77297661163590   -1.99208959078131    2.28230162160821
H           0.89744046055407   -2.94078145352858    2.21904748619655
H           1.52881336816845   -1.58734732137139    1.79989388291072
O          -2.54097287417509    2.04347466316904   -1.64568359542177
H          -2.74742087648999    2.98122654646738   -1.65057306481624
H          -2.08305989233060    1.85565173373662   -0.80441533027016
O           2.77242875293060   -0.90940581980712    0.87138715114689
H           2.39542796576846   -0.34838992698500    0.16648394710994
H           3.42400318107457   -0.36495034861144    1.31787347334679
O          -1.35273139560645   -1.11682180031546    0.99564467252249
H          -0.77143111507069   -1.01951265876957   -0.35856204025021
H          -0.62052987099503   -1.48740628330048    1.55552501221171
H          -1.37224300291962   -0.16829747144668    1.17513666675457
