    19
        -40.91836651
S          -0.39020457704733   -1.04449493438659   -1.62707191632183
O          -1.00010262522898   -1.74672165227093   -0.48685495567888
O          -1.14970376120789    0.14285080433529   -1.97308586053999
O           1.01667982223505   -0.78816583212170   -1.42164083846966
O          -0.50301708248426   -2.03522459105682   -2.84946993144998
H          -1.44223716427140   -2.06330170943104   -3.00482726194153
O           1.74488860527369    1.09583219015478    0.16818908513865
H           1.50073260327485    0.35983426610212   -0.46008183191574
H           2.60999620144030    1.39612489040715   -0.11558118337284
O          -1.27656178022073   -0.28708518970036    1.47544124081054
H          -0.39419285912297   -0.33848275627921    1.97147322833622
H          -1.20984223342525   -0.99370591469539    0.67072752738794
O           1.08786910278468   -0.08466528803256    2.48179120846404
H           1.19292226438652    0.55108291404847    3.19210261521946
H           1.47807390528750    0.31673802333378    1.67384258727111
O          -0.93381303229734    1.74673672049608    0.05607955880056
H          -1.11771204445105    1.29302509188115   -0.80514679157481
H          -1.24655378876606    0.63832001745314    0.96562642952970
H           0.03277844382971    1.84130293976721    0.08848710030440
