    19
        -40.91329949
S           1.10542679760101   -1.02753529197418   -0.78960176514630
O           2.41585760522857   -0.65637132421784   -0.11248868385258
O           0.21705138401467   -1.61080454420436    0.17727573366767
O           0.56699241625067    0.04348384582468   -1.56567776985972
O           1.55186439438953   -2.14441253067113   -1.79656654095200
H           1.83670981717037   -2.90931852241333   -1.29911146859929
O          -2.39056122197554    1.41840743308131    0.75358967732911
H          -2.41027727949147    0.63778612610360    0.15655567882730
H          -3.07877145494139    2.01211617553728    0.45009427615325
O          -2.05456123063099   -0.62010743971706   -0.96848213212987
H          -1.41426197842313   -0.22575766906753   -1.57379144467838
H          -1.52107703997252   -1.20443250265680   -0.41119116628007
O           0.21156680405976    1.97952053169812    0.41394549235293
H          -0.74730998594935    1.89112865080690    0.61335665969852
H           0.34991416959135    1.53807090951379   -0.43536398758864
O           1.45531675450330    0.32191771232923    1.94475296150234
H           2.14338215187270   -0.22406756890269    0.82275309051671
H           1.00241828653319    1.09968611141711    1.49061132697591
H           0.76031962021690   -0.31931011260104    2.12934006210946
