    19
        -40.92085429
S          -0.06964200068869    0.52526075120647    1.32231178986742
O           0.09997978928209    1.36886811307658    0.03594644921011
O          -0.19099935008974   -0.86253160412008    0.95006501408774
O           0.96779169597036    0.80762295162992    2.25738520726667
O          -1.42188492290058    1.03896314214371    1.84441975118033
H          -2.04935319397912    0.92198347513130    1.07284175018886
O          -1.17294134701607   -1.38201666982740   -1.37861952673625
H          -1.57209042674370   -2.25161434695310   -1.44261997052410
H          -0.79405762122821   -1.31450304580629   -0.46902273067967
O          -2.64271676247674    0.72807049256493   -0.42711528954980
H          -2.31259477282531    1.50363348861129   -0.88855155825658
H          -2.23340816744235   -0.04270695399408   -0.87248505511946
O           2.80072124819415   -0.48519951475807    0.68906593238781
H           2.20582422720998   -0.14675909431056    1.37849407785815
H           3.62758261577177   -0.00703064520610    0.78822888989220
O           1.39277080966755   -0.08070840250237   -1.56170361415846
H           0.65020824789451    0.86463786086963   -0.68071367926402
H           1.99352364763477   -0.43385233361919   -0.87037097932549
H           0.72128627377663   -0.75211765443134   -1.74755645684127
