    19
        -40.91198920
S          -1.15941129359052   -0.89685103694653   -0.93626071536344
O           0.09627377605286   -1.04591623621427   -1.60295823047258
O          -1.49720869207452   -2.12744355157211   -0.10203086110570
O          -1.33878287991085    0.29078537727713   -0.15827378482856
O          -2.28716589662644   -0.91983488197454   -2.03126172937143
H          -2.04200215652806   -1.57614745973722   -2.68103055678263
O           0.01324208422010    2.57776576956596   -0.61570853668889
H          -0.49739914689863    3.26059257957900   -0.17612832322708
H          -0.49988611795366    1.75390486915892   -0.52571932874474
O           2.24999374418824    1.69456917485175    0.61768404730442
H           1.46790888175250    2.07858600516017    0.16817038880191
H           2.99304257840548    1.83763203091813    0.02912987607117
O           1.59310603376405   -0.91720562036047    0.69918643209498
H           1.89341275239010    0.01613386277087    0.77086458009054
H           1.28062007067343   -1.02719478268730   -0.21025278778428
O          -0.55284893474633   -1.36041544000105    2.06216361681154
H          -0.92837380220680   -0.47612807345027    2.12043889289610
H          -1.15964113732561   -1.92460095108720    0.87630215138262
H           0.37512012652238   -1.23823162545239    1.69568485905439
