    19
        -40.91103733
S           0.60560291334358    0.22932404074498   -1.38827532901171
O           2.02428416888737    0.36658703211659   -1.12635763353504
O           0.12450325047473   -1.08803064539386   -0.92031574875937
O          -0.19296530586945    1.30135078011444   -0.85103689488761
O           0.40489282795534    0.22231571709969   -2.94509891928458
H           0.95605626321587   -0.49255691292942   -3.24968196369311
O           2.17223631073121    0.38108320825748    1.44812790643511
H           3.01248214518929   -0.01458773416160    1.69116207359668
H           2.18904325234417    0.48077956518373    0.45661309587433
O          -1.62046678575983    0.96157929653645    1.26967278399507
H          -1.57614367121773    1.75138543696232    1.81231278019238
H          -1.18123025490806    1.18787101902695    0.40658672003380
O          -2.68576527105765   -1.03167142170091   -0.79456400793507
H          -2.76027763241368   -0.33934198930264   -0.13313979986960
H          -1.74483791938865   -1.12795105697803   -0.98775717413182
O           0.02793881939786   -0.94657272685312    1.54142259690803
H           0.03815769766955   -1.16284394810988    0.49965877105496
H           0.92165772136795   -0.44103706717502    1.66328705936748
H          -0.71516851949690   -0.23768260293434    1.60738369362971
