    19
        -40.92120616
S           0.84877738105441   -1.08254470083647    0.09501726461386
O           0.03541845256279   -0.74315851178981    1.26293432964589
O           0.50820210974932   -2.35159906659323   -0.48675018481495
O           0.91430441424195    0.03056568585016   -0.83812989563590
O           2.33942348449872   -1.21974113264180    0.65259938147918
H           2.42122017738280   -2.14151985009349    0.87835018381723
O          -0.91201653096083    1.53939532447928    1.15715429888996
H          -0.61363555833150    0.54306094365227    1.32166146975209
H          -0.01058111707032    1.99482802000328    1.06319501431868
O           1.54469761030749    2.07804883467207    0.66814716744011
H           1.48071777995669    1.36246257231756   -0.00570658613260
H           2.20129930067638    1.78783859901714    1.30403363431370
O          -1.97030029559810   -1.50306547083578   -0.99641776984013
H          -2.37690897700803   -2.12149327927841   -1.60705560934473
H          -1.09361118158108   -1.87280669295031   -0.77577214527127
O          -1.50336881604464    1.10806291727128   -1.22830267226695
H          -0.57581692750965    0.88415708922945   -1.43317254852977
H          -1.94058660429717    0.23034617190534   -1.19491912251800
H          -1.29723471202987    1.47716253662266    0.16313376007458
