    19
        -40.92453841
S           0.11347701237397    0.60877087093839   -1.39253409036325
O          -1.18893820655070   -0.04287575499161   -1.31528097615982
O           0.20567682772975    1.69777439263642   -0.42623116960448
O           1.21113494737799   -0.32844083988809   -1.27871462560038
O           0.22432413478748    1.25520380754623   -2.82950896012649
H          -0.51320364529064    1.85574498586285   -2.88657823837303
O           1.99415800018652    0.27822510871179    1.12241645570985
H           1.90728867338136   -0.00471622048680    0.17906564438449
H           1.75940356967145    1.21350307462127    1.09980021487016
O          -1.61333758981691    0.89481376275262    1.23554070934121
H          -2.20842182219302    0.49180546260093    0.59244591666583
H          -0.95267896697907    1.37397543947530    0.67301500106836
O          -0.40303657091656   -2.24187127732222   -0.17187268026901
H          -0.84781508918591   -1.51660014730885   -0.67774211456587
H           0.45800146357616   -2.32017997185674   -0.59893423832011
O          -0.04753247695480   -0.94175668831507    1.95789397877113
H           0.86469908443032   -0.47455637846700    1.74691798250516
H          -0.76212305270663   -0.19336756389318    1.80761618560802
H          -0.20107630292475   -1.60545206261281    1.16268501446208
