    19
        -40.91392437
S          -0.26946383741790    1.18084152310135   -1.87868513205140
O           0.68744013850123    1.96272993008071   -0.99855307742249
O          -0.78549358557272    2.00227127561334   -2.91018543321469
O           0.27308995387459   -0.10236764101360   -2.21807716978526
O          -1.48325169879114    0.85401272178768   -0.87715971089394
H          -1.99627030304913    1.65769627532428   -0.84049670782320
O           0.98010091912239   -1.86283224310438   -0.42784197395333
H           0.69645018965793   -1.28470881726650   -1.17499709597255
H           1.53728190782129   -2.54394622867570   -0.80775409347976
O          -0.29063463847219    0.38310367347514    2.55799856385571
H          -0.81371247229333   -0.28416767960775    2.05451421111561
H          -0.15071084127049    0.01918173949379    3.43322323099326
O          -1.40726768861854   -1.39232903041144    0.90560367777339
H          -0.61602956583550   -1.80438369306145    0.52419696999202
H          -1.72453167340174   -0.77814235724039    0.23382661954434
O           1.65154224216321    0.49268018691213    0.75855441714137
H           1.56385896457067   -0.42006761499049    0.41993773142948
H           1.14448271401991    1.35477054230970   -0.25616169929433
H           1.00311929492534    0.56565744729979    1.50205668202351
