    19
        -40.91058101
S          -0.78688615462563    1.49750060672263   -0.94880475813776
O          -1.20295816467919    0.27749097467058   -1.76045529132142
O          -1.51802269866684    1.53753403015486    0.28740543251927
O           0.63346205942454    1.59699283388765   -0.85675604845647
O          -1.30121739360588    2.67089504138469   -1.84967484333008
H          -2.25069499684871    2.68288781119749   -1.75311205235277
O          -1.07082026958318   -0.67366459124248    1.68702348903827
H          -1.24984355081216    0.20523135238478    1.29433806078885
H          -1.75565783107567   -0.83476579477703    2.33854126779700
O           2.15910222985423   -0.56002445602588   -0.50594828611891
H           2.94391535369055   -0.53942699297069   -1.05605017429745
H           1.72801848715838    0.31352882163845   -0.59260285518229
O           1.73409027499653   -1.00033844866375    2.32796382484241
H           2.07607094071511   -0.86906597835002    1.43675532708222
H           0.78215663630357   -0.86119405250316    2.26794035342037
O          -0.25058996296811   -1.71362802475651   -0.64112829075914
H          -0.56526016176996   -1.58221259129197    0.27772729102100
H          -0.81590004812192   -0.63097908041450   -1.33254676675205
H           0.71103525063866   -1.51676146104152   -0.62061566981430
