    19
        -40.91451105
S          -0.99201715298359   -1.02913548205942    0.59094184520571
O          -0.35198409502238   -1.04937758815369    1.86833731796284
O          -1.47920892124409    0.22802381810060    0.11129698424692
O          -0.11029041657219   -1.69434468359151   -0.45010979391178
O          -2.24517352528196   -1.98823319160362    0.68097785965297
H          -2.00892851588021   -2.73940653513423    1.22194012643762
O           1.62937101189590    0.57720953439019    0.76647435382395
H           1.24973452139475   -0.20668315926681    1.17752579924193
H           1.12805814655278    1.32346283818290    1.14998583032969
O           1.83754897339076    0.93409675740185   -1.87472603870833
H           2.64080840935383    0.48877398670315   -2.14936805602470
H           1.80549652780729    0.86044107172452   -0.89354453375952
O          -0.38247270235215    1.99459583207876    1.90412267097610
H          -0.47147106568780    1.46352531911738    2.69909010050400
H          -0.93688443834630    1.56473606673796    1.23534517781994
O          -0.43744236032191   -0.21102105145630   -2.38844308339364
H           0.43357776403668    0.28136288280198   -2.34849300091013
H          -0.23221229041085   -1.14964345906453   -1.37122528391709
H          -1.07650987032630    0.35161703308603   -1.93012830557301
