    19
        -40.92315422
S           0.67083620774133   -1.47969122931516    0.49203425062745
O          -0.73458419234667   -1.11640608725454    0.68359902816989
O           0.96420832817326   -1.62010933147394   -0.93667303391196
O           1.55826260206124   -0.58137960305475    1.18031877391548
O           0.86479661127714   -2.91888276877598    1.10105216664081
H           0.53558008650627   -3.48260031956603    0.40790922206714
O          -1.94226857997731    0.35579483777683   -1.16550840889934
H          -2.18481447788115    1.10493707740059   -0.61089625320844
H          -1.67175395517420   -0.34901327118297   -0.53668172274328
O          -1.01277644504888    1.42433297875801    1.40872821526306
H          -0.94508629228255    1.57251662190657    2.35297896406253
H          -0.92076385637840    0.45432304904312    1.27851268014160
O           1.26606606131517    1.76418090582646    0.04122239707398
H           0.43356789778374    1.94338984687162    0.52894989765301
H           1.63371890496337    0.97801968638691    0.50538643485044
O           0.45205143826313    0.57276648492653   -1.99111863586730
H          -0.56427079477282    0.56789492082241   -1.83181713987997
H           0.85732687683031    1.19409510093212   -1.22100623175418
H           0.73990357887349   -0.38416890998943   -1.68699057417785
