    19
        -40.92003348
S          -0.60673598846303    0.31550748754662    0.54973539731975
O          -0.60036524935541    0.21376925799936    2.07686007939776
O           0.43319999290895    1.20339982709398    0.09489196899716
O          -0.51147614270571   -1.00589748056822   -0.02384567546489
O          -1.98616054834147    0.92110780181143    0.28144893219701
H          -2.14517495225406    1.03606123162719   -0.72105749564862
O           0.17715324112441   -0.03406337679581   -2.43917189754786
H           0.02489625097111   -0.63624366749857   -1.69004557872859
H           0.76082850874044    0.64841639498198   -2.09260611681704
O           2.60876135271740    0.00752173048206    1.10371034026392
H           3.11139987854324    0.63585128604458    1.62620207217751
H           1.90601703803470    0.51873062321373    0.65802945624152
O          -2.23151837603916    1.00522319789275   -2.24915188683641
H          -1.33182930309908    0.66785769068812   -2.49980083277086
H          -2.86398672827180    0.34410598677094   -2.54105328822262
O           0.95603646783868   -1.76957987527807    2.21861599909322
H          -0.02405716428499   -0.60245408628057    2.31260893775647
H           0.57988102263363   -2.19401223836192    1.43796996991784
H           1.74313071930535   -1.27530179136462    1.89665960864568
