    19
        -40.92175616
S           0.59815015479021    0.32159505576552    0.80334069488023
O           0.00440985880301    1.17052134157153   -0.20401214833251
O           0.16207324982635   -1.14421129077643    0.52250563117654
O           2.02017748871753    0.41089141437261    0.89207610218910
O          -0.04146687561029    0.57986975654840    2.16220468393716
H          -0.99897135392597    0.20970784042311    2.13256564453052
O          -2.61893978418100    0.87036746971615   -0.43367276206371
H          -3.02051383070401    1.74104561177978   -0.45713795628506
H          -1.64973447936351    1.01120337829715   -0.48342626755169
O          -2.33203682038994   -0.44387336284898    1.83168213818957
H          -2.61658669442086    0.02081323086218    1.00463597067066
H          -2.09069632547027   -1.33544274492258    1.56431263436999
O           2.27337089043826    0.78005615872391   -1.76537021797309
H           2.54953592355712    0.80098224821013   -0.83447888869094
H           1.43940560700367    1.26351354404405   -1.77378933103407
O           1.52744637517489   -1.73700270223735   -1.54554777559129
H           0.64458796735296   -1.46602038658106   -0.31044881999072
H           1.83319716084553   -0.82974903793907   -1.80884672476791
H           2.31659147755191   -2.22426753501138   -1.29659258766954
