    19
        -40.92453827
S           0.06622752850501   -0.01855320824220   -1.52240434335081
O           0.96341113287501   -1.06343069726979   -1.04302590557440
O          -1.31202585392537   -0.30218879338216   -1.13692596377060
O           0.49338216758645    1.30585210428639   -1.12283201743450
O           0.11838419516787   -0.04783910474019   -3.10073222001306
H          -0.17614457461015   -0.92158733535754   -3.34087614224950
O          -1.30974126356446    1.76526816097583    0.68853319636135
H          -0.62713055835930    1.80875608380852   -0.02539744414152
H          -2.02403167885466    1.25701842892812    0.28606989511977
O          -0.05059370389620    0.15865453148177    2.16699080663057
H          -0.61896072355330    0.89385302207896    1.68497193414513
H           0.90866539588123    0.24710754174180    1.75688317390589
O           2.09744359999945    0.30317752693550    0.85628956972187
H           2.10452054470853    1.16459400129912    0.42311059960178
H           1.83392836914436   -0.31851978475180    0.13249588409397
O          -0.83470361409981   -1.86005348996494    0.87913462520391
H          -0.03553970581865   -2.27605501659591    0.53505387992612
H          -0.41139746214923   -0.74258273087467    1.77960824643358
H          -1.18569381504176   -1.35347126037733    0.10305221536362
