    19
        -40.92175580
S           0.11076300885477   -0.09953336847769    1.03810720835924
O          -1.02882710433334   -0.72291868952502    0.18343575155374
O           1.00937782518499    0.60178432481948    0.14980782832359
O          -0.43330873918511    0.70170477265731    2.08671373208345
O           0.78658000713398   -1.34140864428365    1.60666062706375
H           0.88400020014264   -2.02137736200329    0.84331258865172
O           1.90119974195949   -0.87817823549180   -1.86026391843379
H           2.85027333892711   -0.75621301296937   -1.92532493146900
H           1.58262198588118   -0.22350010220472   -1.20331742927474
O           0.86569906495277   -2.83601132748581   -0.43371726741282
H          -0.06368379347114   -2.84785380594085   -0.68024693010900
H           1.31143835773837   -2.23240848876043   -1.08020801358225
O          -0.52847242410722    2.88562405782886    0.50856260667547
H          -0.52554885541323    2.40320254393862    1.35115258442969
H           0.26606722952898    2.57525217873312    0.05881990417975
O          -2.41755259699690    1.31781586483644   -0.44875231746919
H          -3.16191237516010    1.41047895944129    0.15079347602285
H          -1.77625401605584    2.03634083790071   -0.20768806672917
H          -1.63246083560630    0.02719948697164   -0.13784743287673
