    19
        -40.91836412
S           0.21872399093635   -0.77245887048986   -0.86436932170946
O          -0.48965417750133    0.47137601343446   -1.07145350180830
O           1.60111311495834   -0.64565606684715   -0.54921330039064
O          -0.54196804105580   -1.57495590063804    0.21020265357272
O           0.04678073900573   -1.66878416003809   -2.10634440841850
H          -0.91906798103795   -1.62007404576899   -2.32063627515751
O          -2.46956607480169   -1.02288790608619   -2.07544061056591
H          -2.06547263436651   -0.19200857863866   -1.77233370014389
H          -2.87704994578224   -1.43290933491557   -1.30817952354344
O           0.09718556066965    1.88483446816015    1.19891870919275
H          -0.19762518195024    1.60025176130010    0.31888034355160
H           1.06867925650982    1.97327911022390    1.12497680516985
O           2.70911570651664    1.57495018508715    0.58548341490670
H           2.46979331396625    0.69919325077129    0.23679677555144
H           3.17470532046584    2.02788840340136   -0.11965280227009
O          -0.26305418264991   -0.37369535856501    2.39919217007982
H          -0.40284459102004   -1.15728834374338    1.14668379495662
H          -0.08652170449148    0.55586045650124    2.05441978755286
H          -1.07327248826958   -0.32691508314129    2.91206898943156
