    19
        -40.91317651
S          -1.53908089968541    1.04998189320604    0.79014788530225
O          -1.79770315966741    1.24269368974528   -0.64969997531261
O          -2.27871799522877   -0.05662717050670    1.33201906436576
O          -0.10563645288306    0.97050793695296    1.04156489937982
O          -2.04122325647566    2.37029924823526    1.49809390421662
H          -2.99118306959325    2.29027830741408    1.51638036477388
O           1.79078097164831    0.92766853671634   -0.85471895686153
H           1.27827678092982    1.20851023875999   -0.06985345315143
H           2.33106199583679    0.16980133954335   -0.55495438946939
O           2.60392749238389   -1.52940651096637   -0.03912766980586
H           1.73653708619970   -1.79785029613561    0.29454995006959
H           2.96596109763589   -2.27416079100192   -0.52125067202628
O          -0.16822616611868   -1.58246646198162    0.45024737634972
H          -1.03507001134465   -1.84557543922702    0.77932849982143
H          -0.04106102579002   -0.69296503169536    0.85495007993026
O          -0.20956255295858   -0.23216047648655   -1.78921081771219
H           0.69512429723051    0.29562046501011   -1.56295084365503
H          -0.22312785888209   -0.96592917874090   -1.10741045483934
H          -0.97107728318019    0.45177969116785   -1.40810478137903
