    19
        -40.92246927
S          -0.96074095640654   -0.35359998780470   -0.31215768054933
O          -1.60539687012489    0.74432778646156    0.36999027210394
O           0.16268285352902    0.19616336401567   -1.18722960580814
O          -0.47399196813699   -1.39710639918891    0.53865043084515
O          -1.93304327696018   -0.95567776073916   -1.34996470379872
H          -2.26511599822437   -0.16856957313464   -1.85022081311299
O           2.12754281830612   -2.00959531433902    0.83219407442292
H           1.15415231879666   -1.93866895731938    0.81784548337069
H           2.35710219348656   -2.72675948522329    0.23901636223677
O          -2.32529114148529    1.50005707759212   -2.10969033130311
H          -1.48911580324953    1.78749779428286   -2.48702464808650
H          -2.25657734308123    1.63675547599754   -1.15073423480886
O           0.37903268949099    0.97185183307162    2.18657920031682
H           0.30608914708138    0.14487874986289    2.66944825091060
H          -0.43681915468149    1.04769116357424    1.66270939740118
O           2.13307875929401    0.57502913092324    0.24281780080670
H           1.65911478943232    0.89977238916477    1.04673507907966
H           2.38671212699836   -0.35379820666672    0.45787874333199
H           1.08058484590931    0.39975091943201   -0.61684308741009
