    19
        -40.91893417
S           0.57641816353155   -1.51048922686328    0.63793583932077
O           0.86121703225866   -2.34123852558044   -0.50457959779742
O           1.43884207096772   -0.31990568194278    0.68536809673416
O          -0.81797300000600   -1.15073508384735    0.80536941413163
O           0.96196446608454   -2.36322146215635    1.92022191336007
H           1.69713300422302   -2.88687136290224    1.61617199794521
O          -1.72066177138165    1.19439917712364    1.43310433360733
H          -1.49426454082380    0.25369888388646    1.21291770060328
H          -1.85238396210102    1.22479478534766    2.38247607548432
O           0.21776030496270    1.70812472264272   -2.04791041916842
H          -0.17412002444383    0.79466669494215   -2.09007681769853
H           1.05110845594396    1.66249776380532   -2.52077983734464
O          -0.68111425229502   -0.75378022129538   -1.94175810680761
H          -1.43292074114612   -0.82044850550797   -1.34547931312982
H          -0.03881017391905   -1.40360719353426   -1.59057218738808
O           0.49857528645770    1.94174433933153    0.45420349410198
H          -0.43336270114905    1.80774253488780    0.85978299028643
H           0.96804952277771    0.99206074621630    0.60764005495688
H           0.37454289006306    1.97056762544772   -0.57403563119462
