    19
        -40.92343663
S           0.97443866101671    1.10418216229859   -0.82312628166721
O           1.65604265099885   -0.11856929073172   -1.19068820122905
O          -0.46799544803733    1.00889230749388   -0.98258621755133
O           1.34182225111815    1.55100498829151    0.52148186641099
O           1.45449626139259    2.23426620701416   -1.81028222551072
H           2.39279624084304    2.26520185664672   -1.65183474903437
O           0.74255385092254   -1.88636523625212    0.50804054059018
H           1.27333545301195   -1.36224341814617   -0.13805752080129
H          -0.11823429076707   -2.00932959939400    0.05585822718963
O          -2.01036419974255    0.51128801921999    1.13739721428438
H          -2.42304270223032   -0.28731112829908    0.79037105019964
H          -1.59300839285611    0.93993665417342    0.36138877390099
O          -1.46056317832870   -1.45358411188990   -0.96742503562091
H          -1.10840464335354   -0.54911642031671   -1.12100468107276
H          -1.52165800442618   -1.86763532440875   -1.82930690189591
O           0.27768664876118   -0.03441994977769    2.10954296916357
H           0.50188784493660   -0.92005859722599    1.55457177246663
H           0.79541437673428    0.69819914353058    1.57176557392314
H          -0.70720339000110    0.17566174776109    1.90389383622575
