    19
        -40.91596178
S           0.49010211567619   -0.77921412819559    1.22575307376650
O           0.41862471210545   -2.02685167034290    1.89784989328069
O          -0.74204878536290   -0.01970863315380    1.17742302247657
O           1.62080934402900    0.08873285466553    1.72508011655244
O           0.91436292045266   -1.02959002570015   -0.28415262204128
H           0.20291506468248   -1.60056564919869   -0.63436410281351
O           1.04410364844557    1.47278794634943   -1.70294324374267
H           1.44341825527027    0.60555084254063   -1.57994799340065
H           0.08381365089701    1.31015847832978   -1.78844919844395
O          -1.41434053514886   -2.29711926413065   -0.24990566972025
H          -1.66992822458326   -1.63133994333687    0.40198003192167
H          -1.22689471905696   -3.09451124715912    0.25360202705014
O          -1.51893943130878    0.69733910391016   -1.31037434466480
H          -1.92985865837764   -0.09390934781755   -1.66471035595188
H          -1.35416689272082    0.52204780630364   -0.36654050155269
O           1.01143323892540    2.31438203228684    0.77386386146364
H           1.10420139138893    2.15051475024770   -0.20796098881059
H           0.06667935903637    2.34341985394476    0.95568386396060
H           1.45571353562339    1.06787624050159    1.37811316069136
