    19
        -40.91865327
S          -0.63516016388955    0.69327759653424   -0.34878216284988
O          -0.85806653586340   -0.80376170879340   -0.57387160932857
O          -0.73891463880346    0.95706839617023    1.06735140669053
O           0.57688328074069    1.10846878034459   -0.98050842710739
O          -1.83013905207813    1.37987612103741   -1.05735128436650
H          -2.60957792047580    1.30190215396231   -0.44918700528020
O          -3.39044476516591    1.15612039343089    1.01335613337427
H          -2.51266693265353    0.98196802747086    1.39848647910332
H          -3.70971535598485    1.97352683609938    1.40401249892675
O           1.90820230696270    0.36318035305049    1.38855891833270
H           0.96516556578561    0.53724861433285    1.52938806889913
H           2.17081038019969    0.98086027005287    0.69962011846202
O           2.39408842213017   -2.00429511811631    0.18990997326436
H           2.30178906379970   -1.16884348945796    0.69792227065694
H           2.00244603966938   -2.69344136450329    0.72890962658239
O           1.08453386214617   -1.39713687376742   -2.02007895821473
H           1.33180239746623   -0.47203654503849   -2.14746867939797
H           1.67906576956706   -1.73725866690997   -1.30289366741898
H          -0.13010171352974   -1.15672379589224   -1.23737369032485
