    19
        -40.91624608
S           0.60214557041408    0.62680730976011    0.29656301374182
O           0.82191992718840   -0.82844834987584   -0.15851595491747
O          -0.01783020809063    1.35472439701622   -0.78285979729080
O          -0.09313775977931    0.64769847992501    1.54368129016328
O           2.03709706801757    1.14540428671250    0.51997770672634
H           2.38766708231980    1.40787681604256   -0.37135026997067
O          -0.49335286848063   -1.99797584015813    2.22315653338139
H          -0.23550842027180   -1.06462686446740    2.26902643681234
H           0.14092858635471   -2.41782396111816    1.63738309777963
O           2.29036020401349    1.93548719713735   -1.93546489702527
H           2.46041409346790    2.86970686921377   -2.07978927871734
H           1.32437405065226    1.82912317309845   -1.85122567322931
O          -2.50024530674349   -0.77380974331476    0.84770192681332
H          -2.13720557458642    0.06356081758221    1.15712724559326
H          -2.05963050510817   -1.44582450129272    1.40223833057490
O          -1.30008679235145   -1.06450424420271   -1.46058227156303
H          -1.91600215025933   -1.05166911683603   -0.67721152555075
H          -1.31783292809085   -0.17146652141447   -1.82146318024882
H           0.00592592128051   -1.06424022385196   -0.75839274308482
