    19
        -40.92158995
S          -0.84026927567012   -0.71089700335515   -0.98328668588771
O          -0.99901215895645    0.66628691001062   -0.54089692999790
O          -0.35499992236218   -0.86846706332481   -2.32729213495830
O          -0.05166719019473   -1.47785176211244   -0.00990990691415
O          -2.30083769980433   -1.32471390925878   -0.94412227569769
H          -2.26091554718991   -2.05913385198383   -1.54916714324555
O          -1.61610609446271    0.97450311745118    1.98520914319337
H          -1.60138367718028    0.86718935966608    1.00497871286242
H          -1.76681824308150    1.90604824444717    2.15783953657459
O           1.43385083001531    1.53513757524899    0.12613935377137
H           1.93732480590381    0.96653202561062   -0.50348700139077
H           0.53139486460817    1.54392140867256   -0.24944527896121
O           2.14287844673740   -0.39231400112703   -1.53581578923827
H           1.29664093487166   -0.53897428997071   -2.00188792429524
H           2.33320429245286   -1.22024325183399   -1.08858810440479
O           0.71361192956782   -0.07593940409827    1.88336127118989
H           0.41992946486707   -0.78706537905407    1.16139997693595
H           1.15728275014359    0.66660448821634    1.25127870162046
H          -0.17410852026850    0.32937677673724    2.16369248881948
