    19
        -40.91966020
S           1.30675178330857    1.05893503025888    0.32118190293308
O           1.98509912670073   -0.22641296506385    0.38220399810398
O           1.03355306273885    1.43799611391270   -1.07389655540071
O           0.11593744290345    1.11317470021232    1.13229676151535
O           2.30931372441988    2.13958316904776    0.87350178208693
H           3.06011298414688    2.05045039935281    0.29460189996311
O           0.38117670894183   -1.95184867083018   -0.62289098816434
H           1.05738367041604   -1.34977178619278   -0.19534313886374
H           0.87773461870012   -2.60949654193256   -1.11360080141724
O          -2.37411102073712    0.65462590819498    0.13343611764651
H          -2.28925151416894   -0.14780059451052    0.70401693757154
H          -1.76186920439544    1.28065594325143    0.55377697498405
O          -1.25322853295290   -1.23505383900740    1.59835251630394
H          -0.64084883040400   -0.49825448607622    1.75778885407411
H          -0.78356014709877   -1.84328813142060    1.01616070271240
O          -0.86330670699125    0.01013809232040   -1.74470335698468
H          -0.06567243772518    0.69228644811503   -1.56902559870488
H          -0.48359167510733   -0.86847794462605   -1.42114641704560
H          -1.61162305157359    0.29255914721528   -1.02671159927201
