    19
        -40.91904990
S           0.69157892236880    0.89678803110300   -0.28268837043698
O          -0.21329511723400    0.11190533610884   -1.25165357346614
O          -0.16610021837961    1.60072678023063    0.63749701743561
O           1.66544681535449    0.02749477443274    0.29157333149816
O           1.39706059689089    1.92573097684181   -1.20046279355207
H           0.67317263731304    2.52086016097272   -1.51811285089759
O          -0.87575055678105   -2.60704267431746    1.08092786592114
H          -1.83013251916754   -2.59168199421969    0.99627964669443
H          -0.63570917996692   -1.85419816186060    1.66685054698955
O          -0.96304664279756    2.97421476705823   -1.54200373496240
H          -1.02655628680036    2.73199543792843   -0.60418867081322
H          -1.46995783780596    2.31775909311818   -2.02771988582090
O          -0.13170054697272   -0.42419242321202    2.45960425145031
H          -0.30421835123632    0.38298358282888    1.94898266283617
H           0.82632723611459   -0.49832502989217    2.48881150636151
O           0.67671027456647   -2.20086994545477   -1.01124156690825
H           1.48916330779074   -1.90761095763480   -0.57899780091070
H           0.08919063003140   -2.51887155405175   -0.27820721253669
H           0.10781683658635   -0.88766620998074   -1.27525037888599
