    19
        -40.91833245
S          -0.95312962943784   -0.98732479937461    1.04622673211359
O          -1.64667058516830   -1.92139390075855    0.19471929576406
O           0.48604432522592   -1.28227769565989    1.12635148308644
O          -1.18742578510873    0.40726318384856    0.72714663816522
O          -1.51322183647064   -1.19963591143663    2.51275252859414
H          -1.55712827242885   -2.14743722428596    2.59529371269465
O           0.53226576040079    2.31291036490155    1.07708216694053
H           0.28574125636451    3.00884387677494    0.46437299823487
H          -0.21483676873951    1.66112129637274    1.07693916594341
O          -1.25008808625944   -0.40769507947577   -1.92042868085097
H          -1.41674284372344   -1.11888237309182   -1.26574469828666
H          -1.68559118457984    0.36019618164979   -1.53942414920569
O           1.28898970425772    0.18186630174717   -2.15955161668611
H           1.69324670820112   -0.54729934487422   -2.63339231917169
H           0.31452211146775   -0.02693107163671   -2.11340615800997
O           2.02323178621496    0.42384551722799    0.26000485271309
H           1.57434401067477    1.27804604637500    0.60444161487443
H           1.41752083503672   -0.35594227787288    0.69223845823109
H           1.80892848410046    0.36072689960377   -0.74562201516094
