    19
        -40.92071370
S          -1.37031459575431    0.43988920831764   -0.35610619141081
O          -1.59121828496153    0.85396778247490   -1.72249752112870
O          -0.92107471455254   -0.96461371191756   -0.27942994105914
O          -0.47527561517566    1.29946544565046    0.38342460054488
O          -2.77422949549167    0.47859629061194    0.36737658576475
H          -3.39331886175472    0.25619452070297   -0.32221081798665
O           0.94322526386987    1.39397068687992   -2.09275962489724
H          -0.03039978777629    1.24441383660927   -2.14598007656683
H           1.04848774813125    2.13781433745936   -1.49223174916015
O          -0.03447068128047   -1.69216223174009    2.14570358756554
H          -0.02941549148861   -2.64841366485469    2.20814792909952
H          -0.50715121388972   -1.46829073823269    1.31942575087922
O           1.67116352252419    0.23864099772184    1.46570683421543
H           0.92171726646837    0.84394003902562    1.26005124370097
H           1.25213999315454   -0.47568244028204    1.99056991139745
O           1.52688093233624   -0.72046536186412   -0.81146621912179
H           0.54565484760906   -0.99324617917769   -0.68456021693293
H           1.45389403256139    0.10669386367946   -1.42121614358563
H           1.76370513544805   -0.33071270112515    0.18805204869286
