    19
        -40.90863220
S           1.79884355029191   -0.09188150156981    0.36443960560503
O           1.18060138354826   -0.77017035750507    1.46571891886268
O           1.45344261860458   -0.78031311180950   -0.96092900114707
O           1.57858052599141    1.31301536512811    0.27683676043254
O           3.34014471088697   -0.35830783296519    0.44980725255230
H           3.43521067435533   -1.27963635263736    0.68191923168255
O          -1.39692304414563   -0.11031515097298    1.70211592602089
H          -1.77246505875112   -0.39925568761756    2.53577867276514
H          -0.46162764546588   -0.39573336697941    1.70131106364227
O          -1.92858629927629   -1.82362239456291   -0.53355045876977
H          -1.64572450642990   -1.27613548190131   -1.27060849601649
H          -1.88230098763882   -1.25991156106357    0.24957526013512
O          -1.04492745993378    1.96999100871822   -0.04491789565079
H          -1.41057294068557    1.39011031478045    0.64367711537542
H          -0.10550120596331    2.06983684692291    0.17620713723875
O          -0.57286383266925    0.33456903866235   -1.98603175961766
H           0.61723261948405   -0.37461153496724   -1.39680551418589
H          -0.85952444454651    1.00608516797052   -1.28957770966393
H          -0.32303864781653    0.83628659208302   -2.76496611873433
