    19
        -40.91816424
S          -0.79644002583032    0.05102512786399   -0.38481442695004
O          -0.51664553724764   -0.73182731419184    0.79476766171327
O           0.37488370606033    0.74348794123570   -0.86551640963911
O          -1.40740993728922   -0.81168036839095   -1.48944601740414
O          -1.94819438485235    1.02358885868085   -0.12898552425799
H          -1.74754699481771    1.65679828182372    0.64432932006630
O          -1.32633686796780    2.45267694392296    1.88716427734394
H          -0.39802776636447    2.13223517279761    2.02158277626375
H          -1.82979354215596    2.17087073057715    2.65484548837228
O           1.97164369714601   -1.37492759900674   -0.48137842667972
H           1.60904784195380   -0.48716148046966   -0.65738733023514
H           1.58933044149324   -1.64721745211703    0.35868312249358
O           0.98399580357335    1.19438002582552    1.90002686255851
H           1.42430813903601    1.46518281773152    1.08838517306564
H           0.53372336209279    0.35669297421222    1.68552909653768
O           0.40074033030945   -2.40020510713987   -2.32527412657389
H           1.11328601614302   -2.17791120924247   -1.67294514922122
H          -0.74586318776283   -1.50213999956854   -1.84332710338543
H           0.71529891649147   -2.11386836459614   -3.18623925406651
