    19
        -40.91256619
S           1.49675328409706   -0.05713720938180   -0.09930372898362
O           0.71368503597936    1.05768207671259    0.58950268544006
O           2.00052460924024   -0.96058952752160    0.88661452715404
O           0.75334636060168   -0.58148392131724   -1.19332164096339
O           2.74092596338725    0.71168713470345   -0.71107477477351
H           3.41048629097959    0.74372004292208   -0.03143072797344
O          -1.95168482164531    0.05893868974066   -1.46896974237886
H          -1.20435395944971   -0.53911032434026   -1.60523110070825
H          -2.18434751847339   -0.03474249912705   -0.51809227049525
O          -1.94870270256483   -0.10552740299726    1.20840777086995
H          -1.51716756819396   -0.96265775356576    1.37276825927247
H          -1.29568552055365    0.56236982654577    1.43497979303129
O          -0.28517850066331   -2.23707684304701    1.57838220455480
H          -0.14520950376769   -2.84465141352611    2.30740571871735
H           0.58449059506517   -1.87512963773113    1.34173881842702
O          -0.41741549301210    2.10214992148366   -1.34627147967033
H          -1.14813550791379    1.39981578944565   -1.46136462801740
H           0.21610307463659    1.58684606096317   -0.19789695751991
H           0.18156588277645    1.97489700190382   -2.08684274659100
