    19
        -40.92343607
S          -0.12738956238772    1.52925473009480   -0.70029353341794
O          -0.06649398570581    2.00103764593196    0.68377369466371
O           1.17842653153377    1.15676221600388   -1.20160079605856
O          -1.11153292096825    0.47110055294694   -0.86450536465596
O          -0.63887632147929    2.74549637286875   -1.56110662771943
H           0.03723132457484    3.40083152223497   -1.42001657019957
O           1.87556868653653   -0.87004446540298    0.29840141417747
H           1.84415493879230   -0.07719145157834   -0.28856255693900
H           1.30644777262720   -1.52199809612932   -0.16166387215833
O          -1.71013736359659   -1.11817117569889    1.19378262105682
H          -1.48297671102726   -1.94946669950593    0.76260907112495
H          -1.76689224831128   -0.46223814106805    0.46810811232523
O          -0.12135709288585   -1.97930843028505   -1.11500889508729
H           0.05426143364403   -2.25076987601949   -2.01690034369013
H          -0.50597634440075   -1.07658682140920   -1.16940780273820
O           0.38763760764461    0.00766562756100    2.09414294213197
H          -0.48127409348026   -0.51126660374978    1.91569998164619
H           1.11750500738553   -0.42701945512220    1.44448599364399
H           0.21167333151469    0.93191253831383    1.63806253190426
