    19
        -40.92179425
S          -0.92391647880518   -0.26935773852887   -0.02718721214508
O          -1.93729427423692   -0.05448026187409    0.94945969176300
O           0.18926127058316   -1.07998716698688    0.42454301274192
O          -1.50631997873905   -0.86297466552282   -1.30519351354494
O          -0.35766504589159    1.09096505424425   -0.52099415298016
H          -0.35323243121691    1.70984476288226    0.28897596824092
O          -0.51855379119721    2.32584567428305    1.68545238775479
H          -1.46788481246999    2.26340187279695    1.82856837397362
H          -0.12082921145726    1.61935073351834    2.25066440480685
O           0.21211031110571    0.06245577838203    2.87789093569719
H          -0.61745670145177   -0.27716124172120    3.22389716103149
H           0.38662888489503   -0.45863373354648    2.07598245586507
O           2.12836979784518   -1.37967559885198   -1.37313468078869
H           1.51994854093473   -1.28201583860827   -0.61209685925501
H           2.36682505707504   -2.30786673706439   -1.41198042438740
O           0.31957727031802   -0.30735404043473   -2.96381650573220
H           0.40673780881415    0.63819819243052   -2.81035845818680
H           1.09925895708470   -0.72691896301423   -2.52117860829769
H          -0.82556517308485   -0.70363609241629   -2.05949397653569
