    19
        -40.91224337
S          -0.17373482088381    0.64276593007858    0.06833421495299
O           0.48258899898623   -0.58612558268787   -0.30614403775967
O           0.86636041061036    1.77897890106147    0.07987374423885
O          -1.31128519130925    0.99882072298794   -0.72068412306576
O          -0.60934088541896    0.55020132976914    1.54334586337861
H           0.03941903527395   -0.10323650136436    1.98861703361093
O          -0.33239727984484    1.20554595379145   -3.22220152443973
H          -0.82084999775711    1.22945132639164   -2.37861626500320
H          -0.78356136160545    0.56657674212766   -3.77730558425563
O          -1.79853843330259   -2.00143389452850    2.48508178870902
H          -2.32791664346918   -2.02966918914059    3.28487762521335
H          -1.96118408980895   -1.14836464032169    2.06866043186614
O           0.86097025259239   -1.38354618756986    2.24489807205652
H           0.10076798711002   -1.95676844077553    2.44751345238868
H           1.03454072236988   -1.49049843854712    1.29609949590979
O           2.04327694747568    0.94493409345143   -2.00831132958230
H           1.89871857870996    0.03598069753300   -1.71610729716210
H           1.32751300023504    1.13119103121412   -2.65273655166580
H           1.46465276982701    1.61519615668818   -0.72519499962171
