    19
        -40.91864565
S           0.96268306360371    0.67543310870800    0.08874816500242
O          -0.23639082430677    1.12203643151189    0.75813256158916
O           2.13344501755274    0.55154037664399    0.88497528416071
O           0.64569956358848   -0.72079712513205   -0.55021445379230
O           1.20301121808934    1.54864732887425   -1.14176406696839
H           0.28046315288058    1.87984325161542   -1.45014978974577
O          -1.52401990043227   -0.46615492295074   -2.23383567675057
H          -1.29631472317954   -0.80020096683912   -3.10376515443493
H          -0.79703907096651   -0.71369052103730   -1.63993708222177
O          -1.21443338762791    2.12028697413650   -1.59322183144390
H          -1.38835752364262    2.08808054533134   -0.64272713052275
H          -1.52719474301317    1.25989643980823   -1.94829000087737
O          -0.54954119345719   -0.78008533133935    2.63461049312874
H          -0.47667303693466    0.01679093105390    2.07652542550124
H          -1.48168346084997   -1.00359172720433    2.67383455550370
O           1.43000147725958   -2.07892328171035    1.41258061251208
H           0.71235088630397   -1.80054733939053    2.02450633891710
H           0.95540892171212   -1.41291824443399    0.14906912341073
H           2.16858455346254   -1.48564593747641    1.60092261660100
