    19
        -40.91983407
S          -0.74758312970930   -0.33342943171420   -0.39442898777961
O          -0.62145430944348    0.69204249645864    0.60677189763894
O          -1.63016266722652    0.15196316603477   -1.54311024898830
O           0.52433968753662   -0.79520054998746   -0.90641270622566
O          -1.53107712673788   -1.52312068393730    0.17115592372262
H          -1.29161154511141   -1.58231672801047    1.16780422307158
O           1.46438017820992    1.64251979172286   -1.61456195451584
H           1.24798284330344    0.70193420244581   -1.49253527952567
H           2.11146283841014    1.85884411921414   -0.93965060353714
O           1.68353012572707   -1.92240034214112    1.24393260540578
H           1.92862192663420   -2.82624717445449    1.03510665605510
H           1.39376269798384   -1.51498416068818    0.40585386367358
O          -0.59817668219049   -1.34546505903065    2.51044522480666
H          -0.58686696535087   -0.38110732550307    2.47000898433259
H           0.31380058509588   -1.62923382848715    2.27556374659326
O          -1.02531623878828    2.59541027597596   -1.36738499674457
H          -0.08442583371120    2.46926175348423   -1.62148686425700
H          -1.51804115921238    1.17251006075066   -1.60453049159329
H          -1.03316521542815    2.56901942787107   -0.40254100214708
