    19
        -40.91392444
S           1.20583622800058    1.79889775477504    0.55344148802178
O           0.99993871949533    1.80303258335398   -0.86557657075294
O           2.16579630688859    2.67847599300747    1.11031858918172
O          -0.11280922247402    1.90394896008696    1.29639594228162
O           1.68114975612700    0.30046611038075    0.88834282963841
H           2.05137323133693    0.34953474628071    1.76637895611177
O          -0.49468492777432    0.05070557990164   -2.09056888014599
H          -0.71718592635443    0.33881764100656   -2.97729494667677
H           0.12676167282720    0.72405676302387   -1.72553731020223
O          -1.18656658174748   -1.96062840268053    1.23413001056968
H          -1.76924584099502   -2.71564689415966    1.14218584025468
H          -0.44214066454025   -2.09902425731242    0.60252594395081
O           0.73751923935201   -1.95192001316997   -0.61714901790811
H           0.30795922481812   -1.43942016535696   -1.32005308314983
H           1.34306095251107   -1.33785728434608   -0.18658589861633
O          -1.81689231135354    0.42112167537026    0.25951433753929
H          -1.69016448972596   -0.43997863491981    0.72981763249097
H          -0.87469005039178    1.30675310213493    0.85724856965338
H          -1.51501531603895    0.26866472256607   -0.65753445223013
