    19
        -40.90805037
S           0.19177113405475    1.59759135354442   -0.05544898815824
O           0.45133253530898    1.55604608635016    1.35246549928095
O           1.07110809689317    0.57511744175056   -0.77148099877311
O          -1.16186296599001    1.46631159795055   -0.48174823441468
O           0.74109440932111    2.97158107577780   -0.58985888150592
H           1.51498743039127    3.17595712357927   -0.06938214414508
O          -2.06587838508991   -1.11816744333154   -0.21952837126997
H          -2.18484240131918   -0.15793326513736   -0.20104336591932
H          -1.53037379892722   -1.32112181779058    0.56547896395987
O           2.15436516390513   -1.77716903183247    0.67291913816755
H           2.15723105380305   -1.05716729110044    0.03763151539446
H           1.30127849012335   -1.72316472009173    1.12143322403912
O          -0.31004994453252   -0.94957429832401    1.88935896501266
H          -0.37073518748316   -1.14314154888736    2.82732785086895
H          -0.01402209491233   -0.02256717000780    1.81144339589420
O          -0.42993251463316   -0.78149822892325   -2.20525065929726
H           0.48369408963288   -0.02382252450121   -1.42815915538042
H          -1.07409882413436   -1.10155860951706   -1.50357266721656
H          -0.92506628637336   -0.16571872939557   -2.75258508650217
