    19
        -40.92246916
S          -0.92111501824054    0.53451413226643    0.11175303932863
O           0.28864472073595    0.92408087230980   -0.73400766297570
O          -1.63827971925510   -0.52757331968979   -0.55455347405955
O          -0.52620954348544    0.25083896988375    1.45825703204945
O          -1.77438251282824    1.82139757043131    0.09244736746492
H          -2.05192775270484    1.90954703911551   -0.85376236833283
O          -2.08704538356350    1.33601996718093   -2.44291466930414
H          -1.21543448563381    1.44535589726126   -2.83350364566387
H          -2.12311616334516    0.42853451656676   -2.09919223172073
O           0.13955843283841   -2.40825063361707    0.21450626955213
H           0.01705697324929   -2.42553626177100    1.16697513214381
H          -0.61560763735739   -1.91037164248495   -0.14268007886851
O           2.02886809297965    0.03868412511436    2.26790892986042
H           2.32283637049311    0.87778651304012    2.62632956849250
H           1.06274257684589    0.11098779383776    2.14919556526975
O           2.09403359838842   -0.69079826377023   -0.28025127360893
H           2.32418364340945   -0.45551530799566    0.64972585460863
H           1.53602999295855   -1.50256895488721   -0.20430849665500
H           1.13916380451469    0.24286698721605   -0.59192485754110
