    19
        -40.92175599
S          -0.83193016206996    0.18044418224510    0.61300228292483
O          -1.87413777340853    1.14403602714904    0.46072015417584
O          -0.75502663940369   -0.79507398870174   -0.45030536473611
O           0.54873972377441    0.88668980617533    0.72528016641962
O          -0.93583389432861   -0.51331279403218    1.96574118823540
H          -0.02843796305097   -0.95208190274136    2.16311299273357
O           1.39910394482926   -1.45607370975517    2.21571180674483
H           1.48388243421360   -1.95179661053160    1.36256772516315
H           1.92413649115519   -0.65731855602545    2.11059832085221
O           1.27273139192184   -2.48456339830871   -0.20677214889682
H           0.94387422823034   -3.37298271051452   -0.35651464724876
H           0.53813175997587   -1.87580868329279   -0.43334055228813
O          -1.60368701755937    1.17268296638325   -2.22101129670330
H          -2.05217973460420    1.32288446083503   -1.37289865679346
H          -1.36928652282289    0.23779873229661   -2.20001692361136
O           0.56975504907880    2.37565495904468   -1.34237479939802
H           0.29845054039079    3.26727825996716   -1.11102771529233
H           0.66046078980204    1.49528859118029   -0.07928523836209
H          -0.18874664626051    1.97625436865847   -1.84318729391554
