    19
        -40.91898896
S           0.17013374495980    0.92998353924689   -0.55981295837283
O           1.29825305693800    0.35765366460036    0.18856382992681
O          -0.45399369618747   -0.06937326879866   -1.40159527616119
O          -0.79469173212929    1.54894123371510    0.35223799756952
O           0.72922984950706    2.08006771335224   -1.44307164917340
H           1.53118713931992    1.69523525987021   -1.85583256249820
O           0.30745000936847   -1.20377371885295    2.00771097923087
H           0.76420486722306   -0.98909249579195    2.82383531160838
H           0.75609082017087   -0.67352782845493    1.29521602949616
O          -2.47182288924055   -1.44843720245814   -0.57319422378576
H          -2.18129414313811   -2.36212746756098   -0.62046361335333
H          -1.77116417959646   -0.91483002531163   -1.03691465062513
O           2.92243140721067    0.68139118231993   -1.86056041131921
H           2.50791051312692    0.32004381124217   -1.05265882209481
H           3.74456874413949    1.09544565472822   -1.58756826842395
O          -1.99411663358613   -0.21906841090393    1.57379433834056
H          -2.34259501575972   -0.77308819080246    0.76653119046020
H          -1.14573109608213   -0.70009712035448    1.88960050276203
H          -1.57605078624853    0.64465367021003    1.09418224642013
