    19
        -40.91624627
S           0.44082047435195    0.80367175066201    0.08188838421537
O          -0.67404281607168    1.00064419920623    0.97512096571846
O           0.95971988865975   -0.63577065083945    0.25878639664303
O           0.18784345070247    1.06492997900961   -1.29887496079007
O           1.63446140441484    1.66667095586411    0.53903244010487
H           1.59469540691291    1.70730227065959    1.53037405747435
O          -1.75740053249522   -0.98283245633502   -1.84029119436768
H          -1.58838508352741   -0.03486746326353   -1.79790862014271
H          -0.99505692010866   -1.34061640588435   -2.33436583628118
O           0.86297537960391    1.68638181886336    3.01371644480693
H           0.67722247975760    2.54259998802995    3.40724504088560
H           0.05482882702108    1.40355457317020    2.54625414975312
O           0.83267632350156   -1.26485987661107   -2.63398413299426
H           1.36494468235633   -1.69781352789514   -1.96244539118773
H           0.79551461474391   -0.32966777135752   -2.38177214280686
O          -1.25894245459364   -1.73357532895242    0.61712844329392
H          -1.59188210982983   -1.60514058399259   -0.31321080803771
H           0.12260119548184   -1.22028211067022    0.45618170378955
H          -1.66259419087170   -1.03032935967693    1.13712507992288
