    19
        -40.92136505
S           0.25584868665584   -1.02912644640837    0.00088155670615
O          -0.28230415378324   -0.33560516662598   -1.14420795468298
O           0.43485473635368    0.02031165601302    1.13558275786053
O          -0.52249056222111   -2.13554553297082    0.45744293634250
O           1.69144491748131   -1.47576458348066   -0.25335375750215
H           2.28263226020597   -0.63877841242170   -0.27231307002366
O           2.91104629502433    0.74555123990907   -0.22042352175548
H           2.64332755110326    1.08775588588802    0.63732709271528
H           2.38456066911684    1.24456858259470   -0.89374410893303
O          -2.95972543763030   -1.33348055880487    1.22291499414524
H          -2.15800769535216   -1.77723439675422    0.88334720953077
H          -3.13725180025030   -1.71878854199217    2.08330727542139
O           1.16432032670047    1.72751101861944   -1.93637995225159
H           0.53552586001637    1.00629956037871   -1.71735362795284
H           1.32335329019412    1.67061559661247   -2.88037033998438
O          -1.85867462690228    1.04540735207801    0.83162016660229
H          -2.42880978633430    0.26839131221838    1.04422485107845
H          -0.44443475654763    0.53504307718729    1.15126378194385
H          -1.83521577391365    1.09286835822212   -0.12976630889071
