    19
        -40.91015966
S          -0.02388542391494    0.15857832433490    1.91164476936243
O           0.19982971031116   -1.33375897533883    1.69707696629062
O           0.95039186572110    0.91775922526473    1.17721460086788
O          -1.38495870850901    0.53436106112049    1.71445171815756
O           0.30706207508869    0.30492891443302    3.43901732461880
H           1.25041165828716    0.18018545195333    3.51776388289623
O           0.11872414511247    0.74197774332249   -1.37569638291593
H           0.55948517251443    0.95012911912912   -0.53198792492246
H          -0.74083600235740    1.20420291408113   -1.32976349735483
O           1.92033535994126   -1.31247588974340   -2.23750119633466
H           1.52494214761566   -0.43807612483888   -2.11401027924188
H           2.16416239282710   -1.37531646759473   -3.16201445349202
O          -2.21740012087715    1.79770194493655   -0.54605877336848
H          -2.40252777548580    2.70678312289817   -0.30467355762535
H          -2.08663568080653    1.31486489408925    0.28939581272431
O          -0.28704701798015   -1.78390243155899   -0.69565083370303
H           0.52693039220472   -2.11553025322853   -1.11099343093832
H          -0.03231630839190   -1.59780964992156    0.69753207634250
H          -0.34666790132486   -0.85460291335018   -1.03574682136899
