    19
        -40.91373468
S          -0.71566315742759   -1.47573694204085    0.30412517615358
O          -1.45861211908974   -0.31156343715927    0.70691520729289
O          -1.12295219513895   -1.91986362093754   -1.09233222379443
O           0.70263560690912   -1.38741940908278    0.42165817070763
O          -1.20402245720088   -2.67397147368199    1.19392264415362
H          -2.15990672464187   -2.68134720246819    1.19193284697142
O          -0.42712978664337    1.35818592573809   -1.27460109922770
H           0.25857916093508    1.87363328962809   -0.79389169436864
H          -0.97866253985308    0.94849896785683   -0.59466623861685
O           0.63700181212775    0.72301106673111    2.17880101037990
H           1.08405672770372   -0.05123900783657    1.81308698903664
H          -0.28690412298775    0.60437139969606    1.92034622813353
O           1.36368083319709    2.54570594835829    0.33497040609585
H           1.22105995863820    3.43666965565108    0.65762079341220
H           1.21054039518084    1.94383982471671    1.09641793117394
O           0.62587979774264   -0.73013809903976   -2.37275993473046
H           1.38712945661130   -0.88555932117641   -1.80270776039527
H          -0.41260119988607   -1.49523010349856   -1.76364104105699
H           0.27589055406149    0.17815254684558   -2.12519742154726
