    19
        -40.91923786
S          -0.48780590465707   -0.10718535250917   -0.83835513645821
O          -1.85205328184895   -0.47449817447697   -1.01522673154493
O           0.42983715033393   -1.18049751896119   -0.54169014323493
O           0.03955033948294    0.69064804160307   -2.02900765363592
O          -0.39967889350327    0.93455976710828    0.32645515892508
H          -1.15555905642667    0.69584652759343    0.98282482096133
O           2.19974161473432    1.86784675758395    0.53530150968141
H           1.27725429498303    1.58594553588879    0.63788610346654
H           2.19394338704684    2.82583151370090    0.48673709581044
O          -1.20436135827727   -2.32672281053673    1.26733899982656
H          -1.78804140277488   -2.85812004940542    0.72078249166723
H          -0.47966523021859   -2.04455804536206    0.68102798085679
O          -2.31637997071892    0.04872011150508    1.69942444661174
H          -2.96093392267215    0.01825465119509    0.98365351695907
H          -1.96146297952301   -0.87053223516707    1.76786746186613
O           2.48922241132602    0.28122350847474   -1.60425334483598
H           1.06627467403916    0.60583024867521   -2.00013721543887
H           2.63341755229032    0.88619653223396   -0.84427841098829
H           2.27670057650794   -0.57878903907737   -1.21635096050065
