    19
        -40.91857449
S          -0.15854806651963    0.19475196000753   -1.07252282347512
O           0.90988865019212   -0.89457530890631   -1.18246604708944
O          -1.17248303320155   -0.21453148353868   -0.12267438404148
O           0.42904420326454    1.46780561973447   -0.80938665582100
O          -0.78084929236816    0.19323851605860   -2.48362316176938
H          -1.33676311496649   -0.62669467284114   -2.52011267068557
O           1.65312068160211    1.47575561363671    1.62872227208350
H           1.35347716775642    1.75948396131428    0.74985914054050
H           0.82673305572934    1.33237682018887    2.13188321135376
O          -2.27618192271701   -1.84543193410479   -1.89586311571598
H          -3.22904592953953   -1.74956729284448   -1.96995363426912
H          -2.02395190085238   -1.51860500115788   -1.01308887099675
O          -0.90934380957263    0.95802753028822    2.32482852430949
H          -1.49772911724763    1.71436807858579    2.28821349594208
H          -1.06224713754549    0.45273588380674    1.50704038459249
O           2.35354392746195   -0.89140818870973    0.87210910124878
H           2.14057537977017    0.00632533803823    1.27855193156022
H           1.50116869477412   -0.95132196186996   -0.33175826891289
H           3.27959157396876   -0.86273347768599    0.62024156114243
