    19
        -40.91855590
S           0.97341875792353   -0.34302461532193    0.54053864102387
O           1.51996390421028   -0.37753683134173   -0.88792707652717
O           0.13846191650739    0.83205071317418    0.69658595920839
O           0.34901941377732   -1.57282827697306    0.89997298042739
O           2.25164451462158   -0.15173059877905    1.38184623795833
H           2.50451417597630    0.79998396773049    1.26840040028075
O          -2.11920769963026    0.30045914465733   -0.75407559347245
H          -1.45513367714945    0.66721510712189   -0.14832348779910
H          -2.42991510092971   -0.52035073400509   -0.32395150308640
O           2.22579855559597    2.41959196774125    1.01158881844171
H           2.19057145574332    2.97156543701500    1.79680538211022
H           1.30863107496350    2.16002516120175    0.80375746241555
O          -2.32517108228472   -2.00165632093213    0.65064136037985
H          -2.66852296395977   -2.14544765076238    1.53411829410405
H          -1.35508204638907   -2.00840920668018    0.72940206594347
O          -0.39691937951011   -0.49990819436425   -2.50863457703814
H           0.76455910942740   -0.48335241651731   -1.58851870500029
H          -1.16507807268140   -0.22500302132934   -1.91950405225579
H          -0.31155286617198    0.17835635836770   -3.18272261715244
