    19
        -40.91855626
S          -0.33284942206433   -0.04751997730340    1.11552545540656
O           0.88088972058325    0.86260838012900    1.31317346203308
O          -1.03010324745234    0.35323092986153   -0.09097478030272
O           0.02333797710579   -1.42646141367517    1.17068900346612
O          -1.21427969708222    0.30348827662545    2.33126725763476
H          -1.61916019302366    1.18336567997413    2.12079239114278
O           0.58984879474169   -2.90126106001426   -1.04311309170667
H          -0.08353869927558   -3.58090209335837   -1.10290510451392
H           0.47934931047351   -2.48200598304301   -0.17170595279405
O           0.59446718933140   -0.43270187865464   -2.14704720897399
H          -0.14561484634436   -0.13113589226387   -1.59595308430738
H           0.66606791281210   -1.39223525766970   -1.97407857336712
O          -2.21873321347049    2.37416905218669    1.12532817564562
H          -3.17308141057859    2.39665719489543    1.01946809376109
H          -1.86239077845277    1.84367987054157    0.38822101932907
O           2.42115869796689    0.63281111779145   -0.65954704953836
H           1.57037867252729    0.75924361202994    0.54740208910588
H           1.81385650392937    0.18905575194942   -1.32812565194245
H           2.64039672824472    1.49591370005419   -1.01841643000606
