    19
        -40.92267749
S          -0.83157616689082   -0.46071395072932    0.48032853389228
O          -1.59072560023581    0.76712608679713    0.29519007141885
O          -0.64430036840607   -1.19933832925808   -0.74761168794157
O           0.47752866661782   -0.15064076062922    1.10749923505252
O          -1.58655397725714   -1.37467478981407    1.48501613315976
H          -1.70248544509561   -0.79232328571367    2.26854582841360
O          -1.44181864670334    0.77233299592079    2.98489801597457
H          -1.69478697846310    1.16772975929239    2.13529560719946
H          -0.47952218794983    0.79414652273697    3.00233004187166
O           1.69864043653805   -1.58987004866910   -1.82754647831325
H           0.75777116575663   -1.58237075507739   -1.52275715834228
H           2.10608030596900   -2.36028042284372   -1.42694346029427
O          -0.21213628719720    1.58371570172437   -1.77911788654090
H          -0.49354096580884    0.97476708060119   -2.46754967410537
H          -0.82834509710430    1.42706727498384   -1.02427110286433
O           1.90638473110699    0.68066996565184   -0.70682582258960
H           2.02389429183927   -0.19690859996402   -1.22309672720668
H           1.16474860524143    1.18511925406273   -1.21492320696841
H           1.37074352804751    0.35444630091123    0.18153972817484
