    19
        -40.92267738
S           0.79819067198589   -0.30994300093321    0.63354433276019
O           0.21497563879239   -1.09309657371386   -0.48451224199134
O           1.61260638033177    0.77302234954102    0.10236927304785
O          -0.24020916894497    0.15008657604079    1.52717323143504
O           1.71249332962189   -1.29167782190085    1.41782638759290
H           2.40164645827289   -1.52639424996188    0.75722446778108
O          -2.78329772077175   -0.09911589557245    0.99899938734513
H          -1.87483785196080    0.01749357428553    1.37218831242730
H          -3.07866102355051   -0.96908946549805    1.27456299927147
O           3.02130136171292   -1.31404500857048   -0.85537547762393
H           2.28742500369802   -1.66602125773140   -1.36958638780081
H           2.84243666009028   -0.36445477737468   -0.76413593305444
O          -0.42118568092579    2.28305541094733   -0.57340942959963
H          -0.75370123146176    2.57641656444233    0.27941684493554
H           0.44538288956959    1.85187070669460   -0.38141015058443
O          -1.70662564533258    0.20886332779892   -1.28158077759455
H          -2.32404717281578    0.08065818489705   -0.47366968688000
H          -1.28224919185058    1.13733721685227   -1.14103130366093
H          -0.87164369655235   -0.44496586026010   -1.03859385800948
