    19
        -40.91898041
S          -0.61497389772694    1.44123665527588    0.45777828574483
O           0.23416349050865    2.15305266697748    1.37629243463735
O           0.01003775547845    1.26892831824180   -0.86545179264295
O          -1.09146692517530    0.16074542911189    0.95579903857938
O          -1.90155586475880    2.32933942630483    0.20856546791447
H          -1.60289578306551    3.23180357356237    0.28334160763186
O           1.33384367568878   -0.20743768592812    1.96241720965689
H           0.37984048857116   -0.38993020670069    1.87178019296086
H           1.34611501867017    0.75509460543821    2.09867442271996
O           0.49462020845002   -2.41079682017584   -1.17149639855200
H           0.33281354312904   -3.02090424613760   -0.44894022110956
H          -0.37510849847208   -1.95321251388283   -1.35504517033003
O          -1.65265744085624   -0.94321594799286   -1.38009257301911
H          -1.63177631532521   -0.59944272905931   -0.46292929677637
H          -1.41715709130171   -0.18656547458525   -1.92558739331232
O           1.83400927332878   -0.37299622059981   -0.51815041305963
H           1.13645594895019    0.37924554156732   -0.77224674029811
H           1.80172783457818   -0.37299097479739    0.51593975321889
H           1.38396459932512   -1.26195339661552   -0.83064842395932
