    19
        -40.91983416
S          -0.08014654674801    0.19084981525100   -0.88627654497739
O          -0.60633304686177    0.89610504456272    0.25195307866228
O           0.90922325588989    1.08379462786265   -1.64330231565557
O           0.56570277661701   -1.05664621456495   -0.54022561861991
O          -1.18343060695985   -0.05719141576850   -1.91337106882930
H          -2.07025756478893   -0.13211104149275   -1.39762155276663
O           2.66010822944310   -0.27961888580624    0.95846966682423
H           3.46780659500883   -0.64104780735866    0.58756107349032
H           1.92357341285411   -0.69164387644205    0.46841675261745
O          -1.52688718200667   -2.10659314421154    0.81886630890519
H          -1.28059591433831   -2.02687981209920    1.74295432315458
H          -0.72376624049796   -1.91176645106753    0.30561662475832
O          -3.08791944765748   -0.22127467342324   -0.26635960202850
H          -2.76020132236995   -1.04341655246763    0.16068529571421
H          -2.73704458930706    0.50031517867648    0.27034700276144
O           1.85019388212023    2.20797337530433    0.41253685538704
H           2.31311320250158    1.41270251541910    0.76010173358438
H           1.37883809310761    1.66179989285664   -0.93684778036724
H           0.98802301401700    2.21464942475561    0.84649574737520
