    19
        -40.92246924
S          -0.34104055992218   -0.96837704366931   -0.30279763883920
O          -1.71124010638353   -0.58038107768119   -0.06120292468370
O           0.33258374513421    0.09695858898695   -1.16375483926606
O           0.43319463757164   -1.23239349938374    0.87217669010536
O          -0.31310584542314   -2.21078322361000   -1.21953089610257
H          -0.91345140690820   -1.96852363351770   -1.96836400018150
O           2.55256832480887    0.23257777734497    1.64013195216895
H           3.35732215452075   -0.17482315197374    1.31556269870977
H           1.83552221048685   -0.41277310453640    1.49123644756189
O          -1.02223484119618    1.22606346444462    1.82309546983656
H          -1.48182079036149    0.62863820291899    1.20844108051258
H          -0.67359653252243    0.66748490401786    2.52235210206892
O          -1.97617511239920   -0.89063207064956   -2.72083326387147
H          -1.47346140112147   -0.14654148832647   -3.06407993981932
H          -2.30165067072017   -0.62345123798298   -1.84580147701527
O           1.02849514322338    1.94476523568114    0.30978394532065
H           0.66731926126605    0.96434031064227   -0.57574743500251
H           0.24923502264164    1.93730994022760    0.91730047777840
H           1.75153676720795    1.51054108736509    0.82203153100839
