    19
        -40.92079114
S           0.74028413429521    0.97524207841235    0.84169211692456
O           0.28693291774614   -0.21679372284991    1.56122599400826
O           0.96249501408065    0.68336582284653   -0.56764443792276
O          -0.09974435319793    2.11972941616339    1.08371129942744
O           2.17313453155578    1.31388966700201    1.42227972411351
H           1.98625085521844    1.62122023168475    2.30387157975364
O          -1.34191379517431   -0.34015929582796   -1.43444640701342
H          -0.51159239518418    0.17534593701044   -1.38429265060720
H          -1.96874588646911    0.16760904187754   -0.86734611670806
O           1.92203570789232   -1.70183380555748   -1.08769929060409
H           1.76059916858888   -0.74738436659203   -0.89843087713676
H           2.04401175167251   -1.77583891505994   -2.03634255107666
O          -2.47865333827259    1.23527272381203    0.34694217241498
H          -1.63881855191058    1.58856692963093    0.71271211968533
H          -3.03494895139096    1.99680990447282    0.17263464331587
O          -0.34019588719543   -2.07389290022211    0.05021201912522
H           0.56064083940592   -2.17821173980985   -0.40574792681337
H          -0.11986491855842   -1.37600064055430    0.80932939473462
H          -0.90190685310420   -1.46693639643006   -0.62266081561061
