    19
        -40.91955040
S          -0.77554005034423    0.31239617121740   -0.81395711101706
O          -1.34345232528445    0.53860860712756    0.59945471277837
O           0.50646184236797    0.97257703037631   -0.90249904025796
O          -0.77834573577653   -1.07291871909463   -1.14813245623510
O          -1.79504119570425    1.06970937266622   -1.68843648549045
H          -1.68149758409994    2.01460912389801   -1.41431073877211
O          -0.92084677876526    3.21468962724680   -0.51403744285501
H          -0.08779129789459    2.72128520690287   -0.58843635359259
H          -1.19735056857270    3.14719873652995    0.40409784599027
O           0.89068771424665   -2.51731379463081    0.45864028309596
H           1.68835266237410   -1.97794897300961    0.28752720206601
H           0.28621270141160   -2.29950811229545   -0.26854005524894
O           2.63909984923674   -0.61007023295897   -0.33025297298217
H           1.93741480299954    0.03852195397994   -0.51779949370895
H           3.14152906772803   -0.70595195631813   -1.14131557633193
O          -0.47065391202600   -1.18436475502406    2.19407568924974
H           0.13185744224521   -1.75292279004131    1.61555976993335
H          -0.98192574138268   -0.15269177409155    1.29334009133226
H          -1.18917092276243   -1.75590471248556    2.47502213206341
