    19
        -40.92078065
S          -0.36884558728208    0.35049210535013   -0.91056811782529
O          -0.42140085531819    0.96249230918721    0.52187845952479
O           0.45881079383084   -0.83638203733056   -0.84692696554424
O          -1.69095220341881    0.13068450790459   -1.39011037518788
O           0.33692299433502    1.43930442123007   -1.70797824891769
H           1.11163611164202    1.79780100585278   -1.13748157726118
O           2.10549835959621    2.16848346129478   -0.04907609289333
H           1.53521137739640    2.32913719978633    0.70901316558765
H           2.55828626880743    1.31000766260817    0.12177389061324
O           2.78988605909723   -0.36239875973741    0.36005181354744
H           2.79185240028697   -0.86396337729961    1.17736751267605
H           2.01341946267661   -0.66601011396643   -0.15045899929852
O          -1.45713764539700   -2.40250921233203    0.21746824129108
H          -0.66621552377315   -1.98413826011088   -0.16661522066053
H          -1.98869019407947   -2.68532286601160   -0.53032470282115
O          -2.54379545695939   -0.20129109906273    1.25926308034680
H          -1.25943653774636    0.57944353988704    0.96186436876511
H          -3.07370268017920    0.05085030653400    0.49516128480673
H          -2.23134714349723   -1.11668079380273    1.06569850324648
