    19
        -40.91892671
S          -1.02350654780147    0.40482690351118   -0.91989362261784
O           0.40004441297347    0.59927281183228   -1.25356444039503
O          -1.54357310350465   -0.80552804631288   -1.51852098438260
O          -1.24026804045543    0.51574128965773    0.50126985834588
O          -1.78125326071238    1.61844673933932   -1.59344994814129
H          -1.84626119825115    1.37808997513636   -2.51317091310054
O           0.82278743447595    0.15708788536756    2.28322054827503
H          -0.12643318171167    0.04967407244854    2.11238177997917
H           0.99022593430737    1.09458013922393    2.03547437776697
O           0.62896498950384    2.42680874039689    0.88697686694060
H           1.07209947938894    2.34759609722276    0.03719289963110
H          -0.23746867150711    2.00727088288049    0.75341565192159
O          -0.26016588802611   -2.67382012582770   -0.24890851607269
H          -0.85913791806937   -2.03007681940214   -0.70702151006256
H          -0.14659525410538   -3.41263723494612   -0.85082598878257
O           1.60020146347533   -1.00452995334893    0.20934308531058
H           0.96219265444927   -1.79666293417537    0.09526603376124
H           1.21139822596343   -0.30047177577644   -0.46889189490308
H           1.37674845959653   -0.57566868722703    1.15970671646305
