    19
        -40.90602766
S           0.83917338720152    0.37053065759985    1.37213217811774
O           1.43652582322734    0.64634953430474   -0.00556950376913
O          -0.31772494059087    1.19833945261639    1.56145904747442
O           0.67926620448446   -1.02780383262698    1.59053774030795
O           1.95924762631318    0.87833422736472    2.34693692028442
H           1.83086905409147    1.81819054929732    2.45014864821339
O           1.21310483666181   -1.56616889617389   -2.03931234282417
H           0.37452269312877   -1.77401320063857   -1.60846117170052
H           1.62408311867530   -0.88013188805538   -1.50822815992713
O          -2.19072830665454    0.38547614172244   -0.27274836528209
H          -1.97062296910896   -0.55594698557740   -0.37826552369068
H          -1.83273246568928    0.64957039662180    0.58850343051101
O          -0.97115062594835   -2.05955217312254   -0.23076404045239
H          -1.17134843838457   -2.99108217648996   -0.12047238295604
H          -0.35327006252459   -1.81490709034233    0.48539317373039
O          -0.30432417135668    1.74559262228486   -1.39153626074209
H          -0.45526791250650    2.63747753894997   -1.06863735302647
H           0.72891824583279    1.12607369452383   -0.64142409323837
H          -1.11854108678125    1.21367141772407   -1.12969197104717
