    19
        -40.91015971
S          -0.76339302824956   -1.51840559475213    0.88880929418451
O          -0.86585915238699   -1.90336266678252   -0.58237702411060
O           0.58673455923797   -1.14832755432456    1.21319412162221
O          -1.77398037122243   -0.59012095903663    1.27564119426579
O          -1.06575897535603   -2.88989506086877    1.58987320199039
H          -0.30597750438373   -3.44456172615597    1.42612017552748
O           0.85998842976719    1.30196123763750    0.13442584892164
H           0.95437806792594    0.45886380073121    0.61351029808899
H           0.21081097271406    1.81427836460984    0.65488164042427
O          -1.24353831316246    2.05252340869057    1.64191411096270
H          -1.25794690382930    2.20834113860569    2.58765180525850
H          -1.59974676014119    1.15631167450151    1.50775689755917
O           2.25367484935894    0.53897078925669   -2.24988415147221
H           2.08490003628373    0.88634951598350   -1.36275168221924
H           2.81786753142310    1.17576861633345   -2.69086807925052
O          -0.42903398557780    0.16757939552439   -1.88084288495638
H           0.36752570287708    0.02372773037202   -2.41942324910635
H          -0.72838795410150   -1.04840451514232   -1.19247276406986
H          -0.10225719117216    0.75840241480902   -1.15515876367817
