    19
        -40.92136408
S          -0.03180944020288   -1.31284816943680   -0.44551885141908
O           1.13728118948418   -2.15544987217117   -0.39892572476593
O          -0.51045091702657   -0.94618659618244    0.89914442398929
O           0.11278764195157   -0.13956320690996   -1.27745477682540
O          -1.20407149159120   -2.17675417496792   -1.07832143688409
H          -0.98756171537240   -3.07385774486587   -0.84039020989295
O           2.65057000683160   -0.04208149366013    0.03428905782265
H           2.64146664613399    0.36130748108047   -0.83823841749117
H           2.24408443132101   -0.93007929395971   -0.08723203740277
O          -0.40074817923352    2.21304857251718   -0.24431465984482
H          -0.17743303465179    1.49574171108771   -0.88067353712641
H          -1.32696361383741    1.99691184386321    0.00294510690010
O          -2.53366232832244    0.69262424685906    0.24589771452822
H          -1.92027120095069    0.01109813486358    0.57991258679644
H          -2.95123918570850    0.31589344283437   -0.53058420262433
O           0.88455079546871    1.04379812859808    1.52207111221814
H           1.72446455397652    0.72673558358031    1.02949604454592
H           0.36152591478498    1.71037581422768    0.82902068185427
H           0.28747992186160    0.20928559120273    1.47887713599520
