    19
        -40.91568354
S           0.37130170054006   -0.43155715234457    0.89820233889815
O          -0.71698419322532    0.59659256688315    0.49239142952733
O          -0.02968988959727   -1.71319897301643    0.38052477877336
O           1.65699137834756    0.04064748206833    0.49994314849779
O           0.27765296912995   -0.41194644620653    2.43567477785100
H          -0.55780010138419   -0.89356312665482    2.66223272792074
O           1.27479402163729    2.55404449297497   -0.54218182711592
H           0.38535925363789    2.73764162814728   -0.23171048579974
H           1.59841603774452    1.81437479692749   -0.00441681131493
O          -1.91125177906850   -1.80613157291670    2.27541230060934
H          -2.67790461999664   -1.32974585514753    1.94695006554584
H          -1.42685715163288   -2.14107105500946    1.50127838899534
O           1.40534930119154    0.55646273743978   -2.38105782559046
H           1.40337248161505    1.45753168858226   -2.00317768802932
H           1.94708940383098    0.04277466292865   -1.77311180063936
O          -1.01398492545252   -0.27458596406514   -1.83325535705533
H          -0.96382900190959    0.35203346754699   -0.48638762621050
H          -0.15758011729739    0.04970595721545   -2.22901802292494
H          -0.86444476799231   -1.20000933549371   -1.60829249185949
