    19
        -40.91855626
S          -0.96525764392114    0.05862571372824    0.64871927661987
O          -0.57098743844213    0.73618560106587   -0.57099630363381
O          -0.99514415779606   -1.44924412318834    0.39210925513108
O          -0.18352628781579    0.38670255643196    1.79442395295192
O          -2.44736927922405    0.37799030302143    0.93036332539217
H          -2.89561542147154    0.36163725000356    0.04650611940068
O           2.08827999140734    0.16780294787964   -0.87068266590907
H           1.19293603497716    0.53777517986960   -0.93252523413975
H           2.45110641145186    0.51801399451899   -0.03322358781067
O           2.44064833256327    1.08569135349704    1.64855640824114
H           1.53629627551394    0.79000637544923    1.85368920884544
H           2.50192180433289    1.99380658366765    1.94961305435215
O          -2.99380556220931    0.54214403185109   -1.60427851008590
H          -2.02419964216698    0.64789300793055   -1.58272520099372
H          -3.36007806557903    1.37308560864311   -1.91695296766645
O           1.29670900005720   -2.22378402093356   -0.28892284574359
H          -0.05669803371343   -1.82164056494229    0.16106161678199
H           1.25110953928521   -2.73441196514328   -1.10071954951959
H           1.73367412271016   -1.34827982333789   -0.52401536219230
