    19
        -40.90722388
S           0.55054765194173    0.12628154160113    0.13629764732640
O           0.93441035762052   -1.26318738877513   -0.42527213761545
O          -0.88725961259618    0.18508059365201    0.20813293593596
O           1.26065136238487    0.39784961192840    1.34064964445629
O           1.05549919019858    1.07269524372246   -0.97639350601401
H           0.39057090046922    1.02984951316714   -1.70763686210016
O           0.74669076339476   -1.50030440345945    3.18915309696328
H           1.57571101499366   -1.82572915238937    3.54574149572926
H           0.96036083273268   -0.69536939374852    2.68242494046035
O          -0.40384600831167    3.61726202979239   -1.94759282147166
H           0.35590659485305    3.29102958287180   -1.46087268446613
H          -0.88187995399510    2.84711094965698   -2.26812674335918
O          -1.14518924535872    0.76927000247766   -2.34861776593838
H          -1.42682947529863    0.57320711500160   -1.43360130183654
H          -1.35810362933214    0.00302652372312   -2.88635680328843
O          -0.61112185877777   -2.50675067890360    1.14362499648949
H          -0.16654391615770   -2.32478644622704    2.00456207039735
H          -1.33121064602731   -1.86917150893254    1.08681747232914
H           0.38163567741667   -1.92736375511476    0.11706634602002
