    19
        -40.91892663
S           0.63554585770538   -0.18816703430362   -1.27219278747664
O           0.03850295430437   -1.30867848562932   -0.58876963242461
O          -0.21754123258176    0.44566870559457   -2.25433337969492
O           1.16720669755759    0.79515337637380   -0.30980889291924
O           1.89832372456620   -0.74410883618126   -2.04463532915148
H           2.10653148990868   -0.06561201799111   -2.68023728146273
O           1.79428097044709   -1.30978581897335    1.46402850477194
H           2.18492501069130   -0.44671754772681    1.29850511905737
H           1.36622164233297   -1.55111424419064    0.62557327168812
O          -0.74228665213918    1.27407333831010    1.19918859868742
H          -1.47261939429995    1.32709815740142    0.48400497259488
H           0.13261407520367    1.17044958534564    0.62394569201610
O          -2.25527938137180    1.22088422784170   -0.84164541427030
H          -1.56635343288997    0.87351690572342   -1.46439333115161
H          -2.60155545226414    2.02169045783821   -1.24150577671903
O          -0.81047278364780   -1.08845045149156    2.01696568604395
H           0.14696465376715   -1.24928241881502    2.17726976599699
H          -0.84469262988122    0.31784911920571    1.65970319270697
H          -0.96031612740952   -1.49446701833301    1.14833701171043
