    19
        -40.92343663
S          -1.01917518991917    1.33979497979528    0.10956962280089
O          -1.90098283645077    0.33711670521431    0.66825645014449
O           0.31988718438797    1.28232606686466    0.67440970528916
O          -0.99231105365834    1.28970850683728   -1.35290552784504
O          -1.59944836096260    2.75341493443408    0.49279341714597
H          -2.46130329987869    2.74288023386935    0.08831442617720
O           1.00681151271641   -1.04317459915789    1.75436274706697
H           0.73011063926379   -0.13677913675960    1.49406637898808
H           0.80597408049837   -1.12711844837913    2.68745601390384
O           2.27291770357542    0.04263642968099   -0.65641363606162
H           2.49641248091598   -0.58887628702353    0.03622332035253
H           1.72732809318204    0.72476997263107   -0.21245117572392
O          -0.79798596711164   -1.93099698493593   -0.02596458472659
H          -0.09415572596197   -1.90107334600284    0.65551516864459
H          -1.41039882774409   -1.20354646555332    0.23826074894982
O           0.24908364277699   -0.77208012064464   -1.96745570681494
H           1.16985685881061   -0.51966483219978   -1.58695605095542
H          -0.20163824807709   -1.40083407383673   -1.22913248689943
H          -0.30098268637747    0.11149646524595   -1.86794883043028
