    19
        -40.91857429
S          -0.32439538641782    0.26501007016052    1.01853222512043
O          -0.17138863429002    1.67341378646657    0.44108000678949
O          -1.05565838278304   -0.56552645395469    0.08401218868717
O           0.93580280776763   -0.26278448047465    1.42903951608978
O          -1.21238651637151    0.50798247917702    2.25578683757687
H          -2.12048174401527    0.67239715896381    1.89409094225430
O           2.59097872392642   -0.59246547237114   -0.71437035601987
H           2.02454232316577   -1.26000631009217   -1.15020096303541
H           2.26714277678946   -0.56208881111710    0.20042680066065
O           0.53785349188672   -2.22508378444591   -1.37904238442334
H           0.50874425271340   -3.05896687007060   -0.90657675661413
H          -0.10866837241414   -1.64151710121259   -0.94437567443080
O          -3.35803305977547    0.53631787959531    0.79494604222562
H          -4.05036810294502   -0.10145179274583    0.98597734860466
H          -2.71811191291720    0.09561409945887    0.20657989022614
O           1.54403103194584    1.66832699393241   -1.39302828681870
H           2.19341130205799    2.35734864500572   -1.23367246308238
H           2.01606935218678    0.79073272734818   -1.24044756259012
H           0.50091604947569    1.70274722638875   -0.34875736121523
