    19
        -40.91167196
S          -0.45668529639104    1.48513587531599    0.19145919980471
O          -0.07850011537526    2.08969393301939    1.42809787110321
O           0.79285730483751    0.96276307589633   -0.52240270587619
O          -1.47985812149647    0.48732033485812    0.23356963251955
O          -0.96353101637638    2.59889512189927   -0.79210243096732
H          -0.41670613998424    3.37367042106600   -0.67655186656855
O          -1.71248635736158   -1.14300660984379   -1.91102690399076
H          -2.49671368439067   -1.68241425979617   -1.79200625922236
H          -1.71937624951956   -0.48428378074706   -1.19422585410434
O           0.70583804472409   -2.04866529456568   -1.06543338150311
H          -0.15256083128257   -1.85242186543006   -1.49058350268490
H           1.29354957763764   -1.34069211099511   -1.33873383766449
O           0.17632922700471   -1.40827209610240    1.48066485292698
H           0.39818130590836   -1.84913914434505    0.62776100287138
H          -0.61123068897689   -0.88272310537073    1.29485221451494
O           2.06372232267768    0.36193949355674    1.51325909636559
H           1.48237930686892   -0.43647510401210    1.68096966385596
H           1.46556426430172    0.70396686460415    0.26012896156942
H           1.70922716718566    1.06470824100585    2.07230424705122
