    19
        -40.91940432
S           0.97875247204040   -0.11317933663776   -0.41197563626930
O           0.79795785966982    0.00596490383714    1.03936084217225
O           0.21754652487997   -1.21800786369756   -0.95634739119070
O           0.64487998749129    1.14910867690276   -1.07977918403900
O           2.49256796279412   -0.35050881073749   -0.67915660301951
H           2.72998231870532   -1.05913913978135   -0.04452670345240
O          -1.39920256930730    1.27170151497186    1.63057454877518
H          -1.12873404019159    2.03947708512399    2.13855465068766
H          -0.58014994416718    0.72655261018681    1.49708263931821
O          -2.24951558711156   -0.78920184045665   -1.57134866271433
H          -2.32393984934158   -0.98051235769746   -2.50874082790449
H          -1.33647835780292   -1.08676416617984   -1.30312845468294
O           2.58123620347879   -1.89126926876714    1.45376677303218
H           1.79149652849082   -1.32551325063895    1.55670031578355
H           3.18977183808944   -1.64649830867204    2.15503583906231
O          -1.77038857532428    1.57831126464646   -0.85726112711480
H          -1.79349131410964    1.53308867356702    0.17008937647276
H          -0.71930817900362    1.49837400606810   -1.04338753660850
H          -2.12298326922148    0.65801560809607   -1.18551287851987
