    19
        -40.91628501
S           0.65877419281272    0.80100100146803    0.75986058806333
O          -0.74213628431476    1.10519535701769    0.56586584069614
O           0.80384698440907   -0.70633615146335    0.99305903461326
O           1.53528438140252    1.23142163567268   -0.28030924081067
O           1.13433847760519    1.43328827872932    2.08850447494317
H           0.36753343181017    1.39128781995893    2.71438425603879
O           1.60980916425639   -0.14523700359331   -2.57816043271096
H           1.67761679933226    0.32530251728774   -1.72505107686677
H           1.61615538147637    0.53586559090347   -3.25361235870086
O          -1.24207318366391    1.37062265981101    3.14526880633933
H          -1.41762058957276    1.25952687607924    2.19161397600472
H          -1.61880341014091    2.21492384794766    3.40460485021202
O          -0.44383735845975   -1.85745837714911   -2.47572917305282
H          -0.06418286276571   -2.72414317784781   -2.63168939846890
H           0.30013962377919   -1.21831289351062   -2.55319284377454
O          -1.33307660671773   -1.51488329578997   -0.01981205864145
H          -1.70084662479658   -0.62214432948775   -0.01815564659696
H          -1.08631401898641   -1.70848876959096   -0.96244572759339
H          -0.05460749748013   -1.17143156643051    0.63499613029531
