    19
        -40.90691864
S          -0.39844048732217   -1.09216017155428   -1.12212116700593
O           1.12192142167771   -0.90289074092441   -0.89796122165417
O          -1.07008002260624   -0.84963936958765    0.13410018705575
O          -0.84674172896294   -0.29991975311526   -2.21961630207040
O          -0.50678616497316   -2.58229340065343   -1.48523760708730
H          -0.48987103767448   -3.09310998680953   -0.62948323485332
O          -0.40480890683187    2.29270798848313   -1.61054552162306
H          -0.58116956064987    1.42674785838425   -2.02145139619378
H          -1.23381703165478    2.77548103635895   -1.61965312876596
O           1.51114903561119    2.83267281113683    2.73871395525055
H           2.42482068108801    3.10192740134795    2.63342368493624
H           1.30839791656981    2.25935692118535    1.98658910127216
O          -0.72526538251473   -3.34599401184804    0.97514401194498
H          -0.91857327379883   -2.39455705895782    1.05809814788241
H          -1.52446827595850   -3.81971413076992    1.21947997799083
O           0.73979767264584    1.20341810700870    0.52055748642156
H           0.41677070112488    1.79945407701409   -0.19520675809754
H          -0.04753927529741    0.76634504857289    0.87203018467217
H           1.22470370954086   -0.07783263525452   -0.33686038004827
