    19
        -40.91416449
S           0.20587628166378    1.53452829299455   -0.70975423615640
O          -0.97528408314579    1.56858724439145   -1.50689394412248
O          -0.14159258218615    1.77857389650607    0.75293119019971
O           1.07427041768338    0.40132044727778   -0.82536168457313
O           1.06969846727232    2.79988701062291   -1.09520492254174
H           0.46710007583718    3.49434570861718   -1.35420871236271
O           0.22794134880711   -2.00148632893247   -1.85767283062060
H           0.68122146577485   -2.67030275766179   -1.34007606158851
H           0.65743017092877   -1.15548909358820   -1.65256534384629
O          -0.59305544076065   -1.54685978728706    1.87983551864035
H          -1.05638286689635   -1.29909396761192    1.04356973580183
H          -1.25054226731356   -1.48089200496545    2.57405477649706
O          -1.75576019446125   -0.83419056809047   -0.40409166471284
H          -1.27075705126588   -1.39733049386224   -1.03770781232129
H          -1.73961753049303    0.05022768769873   -0.79080841583669
O           1.36787681420457    0.17429449885798    1.89030863349461
H           0.50002993029972    1.18229068583536    1.34407912779854
H           0.69586129461760   -0.55270667320036    2.01493709889928
H           1.83568572953190   -0.04570381764635    1.07462953726496
