    19
        -40.91439995
S          -0.67176882694625    0.70849010949228   -1.37229064983026
O          -0.71868159727152    2.12493820543685   -1.15887834043965
O           0.66120862777054    0.13043209343209   -1.47756687278849
O          -1.46974104913572   -0.05621491609608   -0.39430179634806
O          -1.35716404865117    0.42956276128710   -2.77830395427868
H          -1.99928327332291    1.12319418018198   -2.90435174583925
O          -0.16160823023867    0.41941051983020    1.96771587388178
H           0.47398012093681    1.09992869294218    1.65420701298501
H          -0.83581904201109    0.36732898019001    1.27059508594773
O           0.92450616250207   -1.89997315764913    1.80192829881154
H           0.53354849892285   -2.46827608608971    2.46853006726099
H           0.57677552842119   -0.96508939706044    1.97802396320483
O           1.38835703794896    2.04313806002621    0.51164415880261
H           0.65641851543176    2.36168437493121   -0.04339445045338
H           1.90033526167631    1.46796746782710   -0.06435001182786
O          -0.02019018318227   -2.04037689046816   -0.50496120506213
H          -0.83687631038352   -1.40345136935642   -0.38668087606698
H           0.52804025493424   -1.35191316605593   -1.02976668795706
H           0.42796255260564   -2.09078045280782    0.46220211001134
