    19
        -40.92136358
S           1.08791886622953    0.83620929462812   -0.20337419337652
O           2.30847978923750    0.35474806295643   -0.80110917276685
O          -0.04497189109096    0.80735419088056   -1.14553803144836
O           0.73839141497455    0.18886305258723    1.04089525221614
O           1.30594163366503    2.37306140153435    0.13057115199463
H           1.92404213460052    2.67013831721115   -0.53123836277027
O           1.51586491026391   -2.13151432013328   -0.43886535577970
H           1.62800235106808   -2.21480111046422    0.51221107873363
H           1.95199998994511   -1.28206333025250   -0.67744895786801
O          -2.02291392974747    1.62498071899833    0.47502508294241
H          -1.64618499023091    2.29442883014000    1.04861093350044
H          -1.35806173764400    1.45978762593821   -0.21990753787306
O          -1.63961860988270   -0.88475281050118    1.28335528366345
H          -2.12741758882096   -0.05064062498228    1.10387564577658
H          -0.73117835637524   -0.56135370560075    1.48206569352958
O          -0.90534773984065   -1.54438918554262   -0.98932917448422
H           0.01206409607856   -1.96923517628934   -0.82545597885105
H          -1.34693107447616   -1.38785402953221   -0.00013145909634
H          -0.65007924823213   -0.58296720042964   -1.24421188758383
