    19
        -40.91825001
S           0.49771811692371    0.55401821844404   -0.57505373033769
O          -0.61046911715200    0.08369133734845   -1.37640645293485
O          -0.05749672834733    1.23298758092399    0.67488017686461
O           1.47331274832095   -0.42608636242411   -0.22349358168375
O           1.19505247987485    1.70103955753276   -1.34700659937089
H           0.46747364935662    2.22147244893423   -1.77343009080220
O           0.64876052921826   -2.25082388277605    1.64551815201371
H           1.17860973830313   -1.92490926606806    0.90279633778462
H          -0.26076474977831   -2.28970034529869    1.29643465951640
O          -1.61207531201644   -1.92242702255797    0.15850377811114
H          -1.33300499741594   -1.18838227756617   -0.41486380461168
H          -1.96113502004171   -2.60350031744507   -0.41984093463966
O          -1.02747407125243    2.47383287085864   -2.44874909257440
H          -1.25291612750918    1.58074419305627   -2.13077164019023
H          -1.06859760585353    2.44881518057657   -3.40810440015121
O           0.87030598719588    0.10745240802991    2.71398394014518
H           1.82025652169035    0.24888456213719    2.70239304101545
H           0.29837302400452    0.80809828665111    1.55872562528580
H           0.73407092430471   -0.85520717025534    2.46448461663197
