    19
        -40.92079125
S           0.90464994825629   -0.75217550798210   -0.90730455750646
O           0.72063837141638   -1.37176237332161    0.40657487604534
O           0.12123022893983   -1.39002573929894   -1.93369986792009
O           0.73271998443471    0.69213852405046   -0.83389909403938
O           2.42808677188369   -0.96616277609921   -1.27911235909197
H           2.48426657528177   -1.90134210300501   -1.44887182752064
O          -2.32935238988727   -1.19437684792323   -0.96329048294010
H          -2.94391974280996   -1.30052957907080   -1.69192756616040
H          -1.43632779785120   -1.36979274168496   -1.33155449382527
O          -1.67585158405114    1.05221050736066    0.25071894087770
H          -0.88737808553700    1.14886373743752   -0.32093750948549
H          -2.13890184688805    0.26421784047050   -0.11923753183437
O           1.60910272078542    1.82059306357252    1.36574979019077
H           1.46227731379228    2.76609864983545    1.29642404649824
H           1.46669659060005    1.44718185820047    0.46396621986826
O          -0.22472627177910    0.18507458956715    2.08240600436154
H           0.16947838095185   -0.58560698917624    1.48068152307951
H           0.51555973634964    0.87848508558403    2.04580063963188
H          -0.97824891393731    0.57691080149209    1.43751327975479
