    19
        -40.91039659
S          -1.05950291817477   -0.87568318567065   -1.35918138546564
O          -0.65631421157610    0.22375065314385   -2.21247790774034
O           0.10232658307355   -1.72426712617563   -1.01681062803447
O          -1.78975012173911   -0.48537842753930   -0.18019482286920
O          -2.00998773761069   -1.79783296896641   -2.21359923949026
H          -1.54302180318494   -1.89663101200546   -3.03821051379761
O          -0.60283973246835   -0.42868368443397    2.12523771921096
H          -1.16338976321050   -0.41055669062691    1.30741015655109
H          -0.88916788170317   -1.18891279642531    2.63447864656006
O           1.06196518920804    1.54836363660406   -0.80742717665764
H           0.36468897728161    1.13386445963526   -1.38061973634417
H           1.71680259101567    1.92232193082130   -1.40019995773357
O           0.88750106181285    2.01718386568801    2.01505886010172
H           0.14216175640268    1.49079144878326    2.31906267218136
H           0.70192137917515    2.26053497080399    1.10304478749767
O           1.48001057584057   -0.54441906483104    0.62732157201759
H           1.49684099888472    0.37173573024157    0.18978233322565
H           0.81610498728524   -0.46402736210328    1.39386017357270
H           0.94365008957891   -1.15215440642968   -0.10653556221247
