    19
        -40.91370589
S          -0.07629350141803    0.00435407606919   -1.06728923044691
O          -0.38418286279710    1.35028019324891   -0.34943834447472
O           1.15663719434602   -0.51358387476468   -0.55173414481295
O          -1.19756456516094   -0.87452993495204   -1.00253014736356
O           0.10428287228967    0.47412362558645   -2.52795597089302
H           0.75811694235636    1.21203636016503   -2.49293986913771
O           0.59480653105708   -1.41735958110324    1.94046752985864
H          -0.08426299391340   -2.08843316525021    1.72429696863488
H           1.03008543385759   -1.21740022470038    1.09357432726381
O           1.42872757923638    2.64538969478536   -1.93318373372759
H           0.91998543893877    2.55124825047033   -1.11527523677904
H           1.10035323611360    3.42610917932054   -2.38675773434760
O          -1.30904538057640   -2.93209001791372    0.76974584703321
H          -1.43797812513439   -2.21555996824826    0.12320960831068
H          -1.08865977617856   -3.71485229635844    0.26172293945089
O          -0.64290509106295    0.82688373214773    2.08389371901001
H          -0.21000732064469   -0.08768894004597    2.13901057699079
H          -0.10773195438128    1.40798428803308    2.62960001127306
H          -0.55436365681404    1.16308858337715    0.66158288404473
