    19
        -40.92079089
S          -1.07298954295448    0.24369006383195    0.99855678145443
O          -1.02113864713993    1.23233246685271   -0.08035893284653
O          -0.56047515297952   -1.04489977144360    0.55383668975520
O          -0.48065907968723    0.72655045915471    2.21912749583860
O          -2.60959101568395   -0.00279874572273    1.28706727881567
H          -2.89352611539634    0.81567194733232    1.68193865684720
O          -1.10537717677238   -1.67640958325166   -1.93263535248609
H          -1.07093118353841   -1.54953138193169   -0.95503309815966
H          -0.73887975163576   -2.54527190809676   -2.10877501472922
O           1.88230342953411   -0.53447344900963   -0.38410475822973
H           1.13041204377607   -0.96267030618795    0.07312332497864
H           2.13772439876476    0.20071550442636    0.22140472499619
O           1.96251105176433    1.36609974822060    1.44030916062654
H           1.04705039060099    1.22652035849492    1.76637959364935
H           2.52190303056543    1.39337506309566    2.21885954321507
O           0.29698305684070    0.46261552263923   -2.02875384256188
H           1.11145692605014    0.08532189623070   -1.45278841848236
H          -0.25678060919740   -0.36101980891318   -2.24131195752505
H          -0.27999605280638    0.92418193422651   -1.27684186522482
