    19
        -40.91898033
S           0.77913162370225    0.22300707769887   -1.41800988789781
O          -0.58022072608400    0.67102580139603   -1.16031330184815
O           1.76586389786366    1.26930441169347   -1.36215479161937
O           1.11255590263006   -0.91144207458550   -0.53916995930766
O           0.78628603416858   -0.36095387333635   -2.88947376764455
H           1.67888188405222   -0.24152791956436   -3.20307470496168
O          -1.57197287078638   -0.89426947644425    2.04257040016232
H          -2.22552397585226   -0.19566382407238    2.11521875568040
H          -1.68548536588169   -1.29407049703091    1.13332907364968
O           0.42723982789022    2.22031213585400    0.74134817966315
H           1.20465662664898    2.29966660588141    0.16272641128667
H          -0.26335252967531    1.92654661862320    0.11817815187143
O          -1.59963829136209   -1.66322200116404   -0.45084494074879
H          -1.38644808507751   -0.78663272247799   -0.83299329990042
H          -0.80305282876018   -2.18506885117966   -0.58774851821946
O           0.79816121776644   -0.06761278280147    1.76982913080023
H          -0.15548824279966   -0.42423378151045    2.00023697602565
H           1.02998998405949   -0.51550875480909    0.84078569481731
H           0.68841591749748    0.93034389783060    1.51956039818628
