    19
        -40.91966068
S           0.67577623464224    1.42584897099735    0.66527143329743
O           0.26174674641191    1.91384462979019   -0.64111901974511
O          -0.48431474909209    1.27668008428828    1.55729954879994
O           1.45761666945605    0.21607486822138    0.59951142823582
O           1.57834820718404    2.54180506123750    1.31173557134597
H           1.00750275501277    3.30399021433070    1.31170605291569
O           0.37711112290370   -2.26164199327299    0.90859492040478
H           0.61559462291286   -2.31884539521583   -0.04892014602238
H           0.99214796700498   -1.58725224265225    1.24112010321404
O          -1.29211044923278    0.13276908304196   -1.62714782354901
H          -1.99152934574147    0.55474848449845   -2.12969301845092
H          -0.67917118754156    0.86570853624899   -1.32772037946439
O           1.04603990531562   -1.49156418439020   -1.52660725746205
H           1.45952316631388   -0.79004459312499   -0.99715473172203
H           0.27927323241813   -1.08413210657909   -1.94567214362989
O          -1.61656388479863   -0.76891409684213    0.76818603705367
H          -1.63695128730581   -0.53218541177362   -0.21392582137271
H          -0.83951823647059   -1.50389507962963    0.88042362184079
H          -1.21052148027277    0.10700517183708    1.21411162580563
