    19
        -40.91464314
S          -1.66257182113139    0.10825059829296    0.49736529353670
O          -2.21494912415124    1.42554326783757    0.39162018192360
O          -0.45754341592854    0.18089955221699    1.46893460752330
O          -2.49685984299035   -0.98781601563362    0.83409305835321
O          -0.97937144177911   -0.24486773152633   -0.87400810884899
H          -0.57810310360905    0.56628447830114   -1.24334201014385
O           1.81976002185481   -1.65849059861450   -0.65160904408553
H           1.85743651517216   -0.68701295515808   -0.52417106601139
H           2.70731940720067   -1.98381140827191   -0.48950690708335
O           1.79631219534571    0.98005920917837   -0.00275317421926
H           1.36343074719809    1.62587699885167   -0.57383678473066
H           1.22722020124236    0.89750327597314    0.77372225062200
O          -0.36171844062261    2.32763988921025   -1.23766961390701
H          -1.07295294425481    2.28420610920911   -0.56353232272613
H          -0.69775326098557    2.86687732665725   -1.95712116264809
O           0.05812809217110   -2.24687233888131    1.24004323604116
H          -0.16815226630121   -0.81367893049885    1.54439078413150
H          -0.81704168641518   -2.46308576807504    0.89886518003704
H           0.67741015798155   -2.17750494909925    0.46851559224296
