    19
        -40.92136409
S           0.10716145984784   -0.16168861613360   -1.37289300222587
O           0.19404997823482    0.96904647130747   -2.26328463445575
O           1.28354240937779   -0.27167160519127   -0.49230671478501
O          -1.11672577178337   -0.22282233710010   -0.60601760222208
O           0.14412708090976   -1.46859951615199   -2.27385006388470
H           0.64743233309106   -1.20961369467151   -3.04060854652650
O          -0.96457996586234   -0.42411920178645    2.00163638181825
H          -0.44318745907589   -1.25710842523351    1.99248162906435
H          -1.31400991229491   -0.38159589360598    1.08205590235206
O           0.55283180645919   -2.37532755493620    1.00632330993981
H           0.96645907207346   -1.70466126570708    0.43064796576500
H           0.09860308398614   -2.98369013643195    0.42087127693089
O          -0.57563383566493    2.56898793669407   -0.31598879423568
H          -1.50751781361702    2.33990208234203   -0.25941138650432
H          -0.25189747200726    2.13389298376817   -1.13722110081538
O           0.75708482160459    1.26089816593312    1.42326134393228
H           1.17587615291739    0.66310976840459    0.70097058726315
H           0.24001416730713    1.94106032136674    0.85895559637905
H           0.00636988449777    0.58400052713295    1.84437786220958
