    19
        -40.91790590
S          -0.56306057974217    0.73024308499254    0.45155903341799
O          -0.65461822937364    0.10111580270523   -0.84106310553320
O          -1.06274094677108   -0.05998551920068    1.53978633398010
O           0.86118710035135    1.17275522753419    0.73120994506703
O          -1.32737360321502    2.08999268344120    0.40199622874837
H          -2.26310663539377    1.84004500827779    0.25207200232938
O          -3.32584725069248    0.43680770658725   -0.00961380251748
H          -3.09728552820529   -0.06303771566761    0.78269664237469
H          -2.85489649911441    0.01396607014017   -0.73620884873555
O           1.39997549651551   -1.66020830259036   -1.24526150847363
H           0.50598584635626   -1.29858703587872   -1.34137425940339
H           1.45414328447952   -1.92248539758551   -0.30762945697324
O           1.12371491787349   -1.69296546603033    1.46847883094033
H           0.27096464958723   -1.26058598945298    1.63079009548051
H           1.77526338310051   -1.19331304561025    1.96509013120689
O           2.28812062995160    0.76687890539257   -1.27356210191805
H           2.11926040291476   -0.22510967547860   -1.33143239176776
H           1.84682244596518    1.15473691397588   -2.03362687014935
H           1.50349110541251    1.06973676438742   -0.10390687811242
