    19
        -40.91120479
S          -0.28920707047096   -0.61052435892627    1.00888638015635
O          -0.23829979654816   -1.36902371758193   -0.24403637180093
O           1.00537645048749   -0.60704860639240    1.66472555582435
O          -0.84399467480933    0.71074101673737    0.81814813243775
O          -1.26039948103056   -1.40215031293601    1.97491789790630
H          -0.68217946236633   -1.99856653250817    2.44152410810492
O          -3.26085784557838   -0.43325428349147    0.10048995238307
H          -2.49897846470337    0.10039565970628    0.35473767644883
H          -3.21035856866195   -1.22726915781193    0.63483274749684
O           2.71733012761069    0.32045233877110   -0.04826824920856
H           3.51276785813063   -0.21110757828352    0.02658384179061
H           2.11944324017940    0.02799809805914    0.69028359220918
O          -0.31504292844870    2.03826707139920   -1.38702998795709
H          -0.67890780092845    1.63856726839269   -0.56286803302721
H           0.16851896361841    2.82234627869788   -1.11749511009945
O           1.01931271088061   -0.04628670992071   -1.89670801685254
H           0.48180246316597    0.83667343964458   -1.87176889492595
H           1.82711217315458    0.11599291576692   -1.28410137505448
H           0.42656211630631   -0.70620283932486   -1.30285383582398
