    19
        -40.90602764
S          -0.46592149880014    0.71801274009134   -1.41102765277658
O          -1.26005301442808    1.46832536527137   -0.48053856015568
O           0.99410119842878    0.74654290422522   -0.96543619368928
O          -0.88748721335209   -0.61150278272151   -1.69938059600986
O          -0.43373986752942    1.51036128851124   -2.76523587248132
H          -0.49420857843596    2.43687648851042   -2.54510004002100
O          -0.67138760905050   -2.13236974335671    0.47924736745037
H          -0.79406561058414   -1.69359429099886   -0.38503134028342
H          -0.98403794100149   -3.03382902699856    0.38130888069744
O          -1.15452520305178    0.13972241083992    1.91859395638476
H          -1.03645424682663   -0.78143109266618    1.62984326854713
H          -1.55056676097560    0.60717492427824    1.16739564499326
O           2.15554367798033   -1.85762948031765    0.00916688442147
H           1.26952051089328   -2.03573012245196    0.34873944744118
H           2.09043072851299   -1.04236238819575   -0.49349098827554
O           1.05549140271163    1.38113909391804    1.43344501150214
H           0.27523864855793    0.85299222120596    1.78929306561172
H           1.07742306283648    1.02125791889813    0.06023240238890
H           0.81469830412933    2.30604359197565    1.52797530426134
