    19
        -40.91015982
S           0.66989575846577   -0.85114851524673   -1.58438454945322
O          -0.74720015478557   -1.40212598023012   -1.47723380480833
O           0.64971424348608    0.58494601240765   -1.53804036808702
O           1.56794126461289   -1.49136758883781   -0.68093594056230
O           1.05843988319003   -1.27782244815126   -3.04407856976677
H           0.53471181881191   -0.73217864556392   -3.62682664584039
O          -2.61594229976599    1.69074918122506    0.85195757036011
H          -3.03542307197156    2.26493511776162    1.49418462523465
H          -1.66234028405597    1.83182282998963    0.93504551038868
O           0.18937012945992    1.14585486108782    1.05330031879193
H           0.38977071713755    1.15674676319414    0.09984167253204
H           0.99233355498200    0.78080892275561    1.47362481922111
O           2.39729333564409   -0.29229315622835    1.61532489152487
H           2.16027794260084   -0.86608415399822    0.86512432982834
H           3.31249228831887   -0.04035489919451    1.48169189209033
O          -1.55570210830217   -0.82863204666958    0.79930021603420
H          -2.32925892747372   -0.24707416667811    0.70735096599023
H          -1.13560634125611   -1.22363891694932   -0.50794540964130
H          -0.84076773908330   -0.20314317065548    1.08269846617288
