    19
        -40.92048094
S           0.99939517141047   -1.00594984109249   -0.75176240855463
O           1.06082817116939   -1.64290735931218    0.54598982083222
O          -0.39065802099525   -0.89233380809869   -1.21973762097108
O           1.66942677459649    0.27683667790202   -0.81673237394685
O           1.73778844816102   -1.97304452937255   -1.76358161490038
H           1.62930684449659   -2.83291011828385   -1.36782347348952
O           1.26834129154412    0.66953761181030    1.73949026531434
H           1.17072680148911   -0.30563758542351    1.71042436594767
H           1.70501934213637    0.83373879857129    0.87937883160702
O          -1.02583076374085    1.49938369852170    1.18773680575503
H          -0.06193470006626    1.21407920472895    1.54008112411358
H          -1.55957938298283    0.62183489212165    1.14902206825324
O          -2.08973009131907   -0.75962326813643    0.74452856630764
H          -1.44222765835231   -0.97714054754667    0.02598930925734
H          -2.96212548981423   -0.80903835437557    0.34801453566023
O          -0.57210228165088    1.71072689084543   -1.28524207331180
H          -0.62411446897363    0.73709666555347   -1.44724967876959
H          -0.88106238738450    1.73915740200616    0.17929629603336
H           0.36853239034303    1.89619357959374   -1.39782274512400
