    19
        -40.91793136
S          -1.61371299912724    0.53009246886899    0.45065900582048
O          -1.60882971643091    1.63308543235931    1.38386607796364
O          -0.94721483487557    0.82274841326841   -0.80157640029322
O          -1.08633110544109   -0.70326278056230    1.05649891582768
O          -3.12190311582869    0.21843692906768    0.09205716330769
H          -3.56688612112228    0.19159765561186    0.93480739920033
O           0.03382992497487   -1.17931567819025   -2.16217596439105
H          -0.42530965750627   -0.47416283706875   -1.64654082518614
H           0.09298533594531   -0.84870125867475   -3.06048387596193
O           0.91035345289519    2.07878729887374    0.81911732312356
H           0.74727976688251    2.06864153820411   -0.13144158672146
H           0.00731331084295    2.13044775009585    1.20683033073171
O           2.18710374590683   -1.50539340333320   -0.71532436298442
H           2.29012928462534   -2.44974628427737   -0.58169966115127
H           1.40455472838484   -1.39569699162607   -1.32218940990555
O           1.32789529775533   -0.36151466732380    1.38219469945246
H           1.75507289264142   -0.81664053624270    0.55654521280922
H           1.33012347713834    0.65605085086186    1.21608071900151
H           0.28354633273584   -0.59545390191771    1.32277523936910
