    19
        -40.92071441
S           1.13938830212889   -0.85993397075773    0.39858532626901
O           1.87553500622620   -0.46728173052027    1.57808817713526
O          -0.27892624419668   -1.13061696463201    0.70679209430314
O           1.24999795859635    0.06923493014490   -0.70214334846285
O           1.74332222250704   -2.23974423492359   -0.07875888479087
H           2.03513221246215   -2.65352737128524    0.72858561033017
O           1.10505358666990    2.02625393001851    1.37197498009081
H           1.55135729619857    2.27567014576546    0.55738728372179
H           1.48850309022758    1.15069694333103    1.61566426670826
O          -0.95346782839201    1.09540015764685   -1.69932627439484
H          -0.02278335468135    0.79262969641913   -1.58727438665924
H          -1.44177306048402    0.26853279105094   -1.89818147287719
O          -1.83244484011927   -1.40817022583514   -1.46202761357393
H          -1.23544236756581   -1.46955908382628   -0.68990427317723
H          -2.64839197975968   -1.84477513389553   -1.21302445386804
O          -1.21916359057828    1.20342450281507    0.75888542206459
H          -1.21701795916576    1.28903872085096   -0.33694043975125
H          -0.97093150486255    0.21432855320728    0.87491337293813
H          -0.36794693515500    1.68839832418824    1.07670460399103
