    19
        -40.92071446
S           0.65750086185687   -0.26163789392065   -1.30218982404457
O           0.95812714654567   -1.05886181525196   -0.13552703118494
O          -0.12293328708550   -0.95210359366875   -2.30305297487324
O           0.03077425187914    1.01590703695115   -0.90856380571178
O           2.03007169690938    0.12738567095856   -1.98128669225701
H           1.80379694686796    0.25346879360135   -2.89850417034882
O           0.21221160809090   -0.16393952406795    2.22013272899634
H           0.63636117953115    0.71980870827657    2.19941519900830
H           0.67408106709726   -0.65839415520280    1.50435380568018
O           1.13216780996579    2.14558724257551    1.26128404527367
H           0.84922310485448    1.81395892647215    0.38597764302615
H           0.88775324219430    3.07160423865107    1.29574303954238
O          -1.70936458922739   -2.00694638751317   -0.50766493504745
H          -1.23040033639660   -1.70454044194214   -1.31523422447107
H          -1.09148350040025   -2.58789765711999   -0.05417956176851
O          -1.71698683655977    0.21877609131298    0.71721817672882
H          -0.98051783392509    0.04976825315948    1.51445027302407
H          -1.13403407073556    0.68386582368972    0.01171177465992
H          -1.88634848146748   -0.70580930695331    0.29591651376192
