    19
        -40.91413647
S          -0.05035632024183    1.07647125919401   -0.22903651695209
O           1.16139685019923    1.22464157896666    0.53967594529059
O          -0.02090097354191   -0.32625228966618   -0.88910928261907
O          -1.27176058796127    1.25064010970999    0.48048724792564
O          -0.01575751541378    2.02568063630713   -1.44350128825702
H           0.93608691044631    2.09684677011351   -1.72202483831919
O           2.57421823737562    2.07068475515288   -1.52250202435157
H           2.39690718340230    1.70699318226196   -0.63397444339611
H           2.99118851840012    2.92684036290237   -1.39744961368425
O          -1.63928705932242   -1.05125318926401    1.93806527146853
H          -2.11525317154251   -1.54746428687837    1.24827465100780
H          -1.69147756117311   -0.12494998890555    1.65365141319565
O          -2.20876127166489   -2.14552387868260   -0.52040757044240
H          -1.65756649469759   -1.46242948138722   -0.92249625218470
H          -1.78014257998921   -2.98546943936012   -0.69785441440323
O           0.78839371531517   -1.52110646783178    1.14607079922562
H           1.32667154176209   -0.80497369979556    1.49997951709620
H          -0.09713368980576   -1.46629906318842    1.61574657654994
H           0.37353426849138   -0.94307687978133   -0.14359515717627
