    19
        -40.92343610
S           0.32661892598386   -1.49294972695783    0.71431036366313
O           1.54121127167079   -0.79564402465155    1.08008831866277
O          -0.86890755283321   -0.70644424428034    0.97367702694875
O           0.36823797582272   -1.97382813396419   -0.66734422438604
O           0.21941932070212   -2.77320250273963    1.62615449130219
H           1.02031281495276   -3.24489494948858    1.41945147614595
O          -2.04226597100326    0.62526019404790   -1.01934421566670
H          -1.86284599874594   -0.00316716881839   -0.28925980802218
H          -1.98936932360944    1.49892390582390   -0.61640348263307
O          -0.50309030517976    1.91916670749207    1.11464077003457
H          -0.31532643200411    2.25142619460051    1.99350577392561
H          -0.64277763790204    0.95116154086827    1.21071627879421
O           1.56186088106574    1.29830797504266   -0.48769737589523
H           1.78576001515819    0.53904264763557    0.10182177652304
H           0.89578264727113    1.80219895159923    0.02512476591480
O           0.17315258413390    0.02972203791604   -2.12211090175604
H          -0.77646142022943    0.32150567763485   -1.85901129598707
H           0.83055747758321    0.64965055454203   -1.55047179286317
H           0.27813073716368   -0.89623562623113   -1.64784793467689
