    19
        -40.92267727
S           0.91813602300876    0.53608394782372    0.05289716957658
O           0.75747432777076   -0.93538364100333    0.16229522458972
O           0.73628992547820    0.94891190022944   -1.33070895559825
O           0.02603017916158    1.21359453555994    0.96610218198700
O           2.37876243695710    0.84499144655481    0.48466219481796
H           2.91340777825584    0.38110427688664   -0.19738266929137
O          -1.81904878195696   -0.02623308581200    2.33166813576846
H          -1.43228775423655   -0.38118766641655    3.13443010049287
H          -1.14050752385472    0.57652970513557    1.93852971547342
O           2.92223038425969   -0.59771707883787   -1.63771029774063
H           2.48857802015754   -1.38940647854027   -1.30283397219052
H           2.20904059177188   -0.03901706518610   -1.98561028460562
O          -1.66329849674819   -1.34321901763105    0.16505535038573
H          -1.88299334260977   -0.95078802790571    1.08627781793918
H          -0.57776211216496   -1.29742774210836    0.14918200016659
O          -1.87522567227928    0.72467531339837   -1.29465267131325
H          -1.90585747910850   -0.59505402084974   -0.50167735888420
H          -2.13700671106352    1.46517479199776   -0.74057807407427
H          -0.91596178280598    0.86436789670033   -1.47994561750516
