    19
        -40.92079114
S          -0.00173393486374    0.66109682003500   -1.33079621563293
O           1.15074726114468    0.39497091622392   -0.48108425205783
O          -0.22652200033725   -0.33037356105711   -2.35090667554378
O          -1.19812928552138    0.92297969817138   -0.52837414285707
O           0.33515016270676    2.02176434872835   -2.06602404751816
H          -0.36224938687996    2.10272806321485   -2.70922343713703
O           0.39944141936536   -1.61275240624753    1.10359884199076
H           0.93103081161194   -1.03708208796757    0.51717847314541
H          -0.19615905062661   -2.09441802633799    0.48286145232703
O          -1.07469406299606   -2.39586466966417   -0.93646723968829
H          -0.84679790904000   -1.63860622500170   -1.51815679968680
H          -0.95801594006665   -3.18539970530361   -1.46838685676823
O           1.25199837626909    1.77460317910217    1.74715606582038
H           2.05448002548232    1.53165944307603    2.21330985433845
H           1.33474507918667    1.40780117626112    0.83522931940376
O          -0.89008207010800    0.37909394435221    1.86671998399642
H          -1.16812900556222    0.64468183097841    0.88532074345859
H          -0.41686161810937   -0.56081848908982    1.69339750787563
H          -0.11821887171151    1.01393575046741    2.04464741457268
