    19
        -40.91893393
S           0.64540513813212    1.44386607823326    0.71946347909609
O           0.79501533488580    0.15222350798010    1.40718917269714
O           1.81384744826107    1.78709973346982   -0.05073908956924
O          -0.60921177827170    1.50570955486098   -0.00410426017988
O           0.53539144208074    2.52742126394085    1.87448420045923
H           1.44585063765422    2.74122178598530    2.05469174884770
O           0.65322069399608   -2.25723980148162   -1.28033230051092
H           1.54677949851636   -2.56505847402411   -1.11617836622637
H           0.74121551084399   -1.33506014581678   -1.64305447230336
O          -2.52640119872426   -0.23221072233981    0.11644139103596
H          -1.87508062054795    0.50804732892355    0.00597649517790
H          -3.16593179834393    0.06638397153791    0.76563144998313
O           0.88128562023701    0.25800687814791   -1.98978546989876
H           0.02088842996462    0.68732554748767   -2.01523376501584
H           1.40475266884902    0.80699244715590   -1.37137685233144
O          -0.63663299183406   -1.76544300401541    0.83850512882713
H          -1.49597710517078   -1.28879155614502    0.54689289003028
H          -0.16191283609728   -2.08039284945669   -0.02666048603935
H          -0.01250410442556   -0.96010153441697    1.16818911592053
