    19
        -40.91974984
S           0.73050772054834   -0.25524587339337    0.33380653159570
O           0.51295415998997    0.24409400693199   -1.00852746137554
O           1.75901922684647    0.61694044041206    1.05705184520330
O          -0.47697357481577   -0.34166981628997    1.10746580021569
O           1.45571645457131   -1.60170230629920    0.26548695986274
H           0.89391803212057   -2.30457420397668   -0.21662446364034
O          -1.78284857055503   -1.19182628979943   -1.17950645922981
H          -1.93317049089919   -1.00743160586951   -0.24409111208725
H          -1.11063217483729   -0.54429499036577   -1.44370761221290
O          -0.28398895789687    2.74589428355972   -0.39344467179806
H          -0.04081716722438    1.87122502304058   -0.74834105093210
H           0.25181436230741    3.38877050096341   -0.86251461962124
O          -0.05552814448377   -3.17125079047395   -1.05167407273687
H           0.29541020775500   -3.31700290869613   -1.93358468269948
H          -0.83816649125664   -2.56867023928587   -1.15095170832996
O           0.09477714415850    2.13949563479324    2.18827463631513
H          -0.15897163795991    2.58803686230760    1.35251138441070
H          -0.54239245433447    1.42250404313398    2.30024054570040
H           1.22937236597305    1.28670821931885    1.62813024136014
