    19
        -40.90830778
S          -1.07301790551641    0.17239304338624   -1.55662132535045
O          -1.89798564463134   -0.25831856151209   -0.40771647392583
O          -1.14842656265938    1.58545792519989   -1.78858382722363
O           0.28147171892587   -0.34419040284731   -1.41549037360021
O          -1.69340126239698   -0.56102591168759   -2.81159447415442
H          -2.40356571344827    0.00659362222910   -3.09914449744723
O           0.74260228922690    1.72839847514469    0.19204128925923
H           0.84880317780500    1.02651107287274   -0.47819775168474
H           0.16242368316258    2.36518362406946   -0.24153045571225
O           2.15875421196523    0.08643142917455    2.10005405740789
H           2.22242069475662   -0.71953472373605    1.57971113706022
H           2.27235975868911    0.82502074170947    1.49624850863816
O           0.69279437081411   -1.90731179479156    0.66411455304397
H           0.61147727684716   -1.43422475028268   -0.19667413570172
H           0.24398490411626   -2.74728043556545    0.55719030539720
O          -0.63552348503056    0.09336227787776    1.65488592533106
H          -0.03814016446923   -0.71720310506247    1.60611180708998
H          -0.03813172020049    0.85421500925130    1.35449607781631
H          -1.30889962794465   -0.05447752543026    0.79069965376600
