    19
        -40.91721622
S           0.82789193840940   -0.22022419053798   -1.62892071899592
O           1.26492437003874   -0.46431341272692   -2.96109092889613
O          -0.52100996655098   -0.72261773052365   -1.31955563403073
O           1.74006893843621   -0.57992573227856   -0.55415599996295
O           0.67289403490901    1.38750632442438   -1.50760898415627
H           0.70603496028300    1.62663479473576   -2.42742569094216
O          -0.71516714721713   -0.00170713065948    2.04615680344478
H           0.13893441231075    0.57769339989913    1.82936194895113
H          -1.41459515574325    0.33293143559315    1.37032213085762
O           1.29616693891856    1.23173978338189    1.20780416427819
H           1.02914046257584    1.96944757438933    0.65078649042650
H           1.60722050483612    0.53554360314844    0.56438842067946
O          -2.16048919199553    0.68874261098808    0.08089555457714
H          -3.03077932480129    0.30668953503512   -0.04736439483799
H          -1.55782983049422    0.22892361024868   -0.56517606120183
O          -0.04195017781353   -2.09659771516503    0.83649843636774
H          -0.30739179401876   -1.74037555600244   -0.04893515803555
H           0.92213997572737   -2.10369650934938    0.79159746673396
H          -0.45620394752947   -0.95639470437371    1.68242213422725
