    19
        -40.91628514
S           0.59113211507152   -0.32221388098164   -1.09567687528299
O           1.03204005540988    0.90221531686280   -0.46380332796301
O           0.42135444222608   -1.39553913669220   -0.01571204558161
O          -0.59150822086601   -0.21894029642585   -1.88700549004191
O           1.72820568069474   -0.86749476876016   -1.99072338603578
H           2.57989392004709   -0.64091727061936   -1.53831543784960
O          -2.96897859252048   -0.05551063787510   -0.66126766981203
H          -3.43121675686083    0.63064838411875   -1.14676374429416
H          -2.13271630139143   -0.20484545588539   -1.14306701291912
O          -2.43600936824459    0.31393976792922    1.93468304124265
H          -2.90481343414362   -0.38466877732598    2.39477446494883
H          -2.66151980388801    0.20917415347730    0.98276906823875
O           3.59218503747863    0.26305353569221   -0.57086261557702
H           2.78422036214038    0.73940954739032   -0.30084144785285
H           4.15373481507677    0.89578812018387   -1.02508001932639
O           0.18377859284826    0.05111639138287    2.00790252377805
H          -0.79793613414728    0.18218319214196    2.08676291148010
H           0.33990691713457   -0.91675130345799    0.90419996118950
H           0.51824665393169    0.81935311861232    1.52802710161359
