    19
        -40.91689940
S           1.04211807641738    1.28175334111226    0.80121976987566
O           1.25571713568890    0.72569207389100   -0.53975783848071
O          -0.37412283347798    1.10778416153718    1.17504182355292
O           1.96388510707697    0.77961068489535    1.76933055197579
O           1.23419248023842    2.84438238666096    0.67988965491973
H           0.45814580873917    3.15128794671927    0.21774329210124
O          -2.15471918524698   -1.35371474483542   -0.94221291481876
H          -3.04786383392109   -1.02851821114517   -0.81333198696680
H          -1.67155410738015   -0.64743074103891   -1.44968158835829
O          -0.82491353260748   -1.30977330089100    1.22084706654865
H          -1.39264668187432   -1.43225411912753    0.36570684644495
H          -0.70053201923768   -0.24635082969708    1.30149204412952
O          -0.79666535172959    0.55223910559771   -2.13436820758797
H          -0.02492283156133    0.67226692375843   -1.52808770372398
H          -0.42261612051145    0.32924211882442   -2.98911180586448
O           1.61166721056822   -1.63668110811878    0.59244282863934
H           1.62183157038618   -0.91343969273209   -0.06723687336086
H           2.09015966700715   -1.25073753868258    1.33964394995387
H           0.13283944136126   -1.62535844674168    1.00043109106349
