    19
        -40.91039646
S          -0.49959996073564   -0.72365291203298   -1.72563073350126
O          -0.92504589138211   -1.88271260508664   -0.96710614829890
O          -1.35154854676440    0.44438941634074   -1.41419221943119
O           0.89902324567178   -0.40238152441035   -1.59894703119070
O          -0.77056826002356   -1.04175938580447   -3.24502860833493
H          -1.65862175336575   -1.38691163440463   -3.24481814892630
O           1.45120189405868    0.38719739577652    2.58534811093828
H           1.95802228133824    0.68081108188399    1.82252441399522
H           1.05996193388567   -0.45938993803943    2.34965302407825
O          -0.68551213222739   -1.19497085425990    1.51252512191326
H          -1.38188263907611   -1.62238213163786    2.01486046857494
H          -0.74069675002830   -1.55543293275098    0.58843709763379
O           1.64702243182857    1.52817023435632   -0.03684935349685
H           1.90950093407670    2.27442714526619   -0.57852295084400
H           1.48695457031280    0.77191172211238   -0.65808899470803
O          -0.76371436844129    1.27755146853047    0.81166873181079
H          -0.73788326005628    0.39266761091118    1.30946995026721
H           0.21028499683932    1.52819637304414    0.65876111513486
H          -1.10689874592411    0.98427147020133   -0.18406386561545
