    19
        -40.92019829
S           0.52170132042906    0.09684339938695   -0.96032660844718
O          -0.91938256795381    0.05486355389140   -0.87363747180703
O           1.06727403736283    0.04815180204395    0.49536183502157
O           1.11369469670327   -0.93665781862001   -1.74695383062233
O           0.99972100570742    1.45457091257472   -1.45742950600801
H           0.68466981433573    2.19393563643508   -0.82604420494426
O           0.76491801755729   -3.31659891576013   -0.54873896063368
H           1.62214844987182   -3.73743890355441   -0.46004217137988
H           0.89605397834961   -2.54846677264686   -1.13766821618391
O           0.07243064551724    3.22053134591318    0.12153165153314
H          -0.45456018671427    3.85261616924306   -0.37336049607290
H          -0.56231806873118    2.69105686861833    0.66774994901854
O          -1.60227553033023    1.51700207949272    1.23058799249626
H          -1.53044587595765    0.95142889886594    0.43420598223564
H          -1.30392208527830    0.98483476760160    1.97163583588227
O          -0.54086528669110   -1.79900149410616    1.19327881463038
H          -1.24378312304983   -1.50233205757645    0.60256556802501
H          -0.11283030606147   -2.54811742826568    0.72038409506318
H           0.52777105493527   -0.67722204352144    0.94689974219403
