    19
        -40.91836404
S           1.15853247097083   -0.22101501343793   -0.01836017453315
O           0.60181555644876    1.06865290291764    0.32588041858442
O           0.91500879834657   -1.26395568413661    0.91937466361416
O           0.65555814576659   -0.59022575671606   -1.42832395214382
O           2.67457802617336   -0.07453889073395   -0.25401499112166
H           2.76410720494026    0.72910550192559   -0.82613318040626
O          -2.02848288705337    0.48045504181585    0.80825272663205
H          -1.15808229157421    0.90424622175669    0.73643447750201
H          -1.95331976009251   -0.12647824962635    1.57181144097082
O          -1.17927835552449   -1.28384628074800    2.66873638198165
H          -0.42296365036932   -1.45786588991503    2.08259789426240
H          -0.81080898497070   -1.06125993297192    3.52536698213535
O           2.13263408086015    2.06058262383085   -1.63202534054721
H           1.69289320954005    1.79313308115574   -2.44315202977911
H           1.44911895268501    2.11159695537797   -0.94219558744660
O          -1.80948921446757   -1.04700633355791   -1.26302637117605
H          -2.31509171525028   -0.66576703840529   -1.98463475937574
H          -0.34479200782031   -0.85393640257990   -1.40330081025999
H          -2.02193755864027   -0.50187685593655   -0.44328779911302
