    19
        -40.91749330
S           0.80845932129678    0.33647812552766   -0.96443725660249
O           1.71986034065554   -0.40223852824052    0.01374279692153
O           1.59979304280593    1.05031034003462   -1.91648830407843
O          -0.19507460108585   -0.55912655497444   -1.46455558132436
O           0.06009179057369    1.38593587092633   -0.07099312105501
H           0.69963205849027    2.13277344822959    0.05515996300028
O           1.97675817680752    3.11914469155321   -0.31385750275859
H           2.18990732344057    2.48314172546980   -1.02240297408737
H           1.78794223967317    3.95790102079138   -0.74221825339681
O          -2.38531745613397   -0.08963818949095    0.04887168528605
H          -2.17979474402528    0.80647915487440    0.32684003870047
H          -1.71723675695936   -0.30199192862944   -0.62777598364548
O          -1.57612823729058   -1.78831882730238    1.94465521034250
H          -1.96633023547385   -1.13856992989724    1.31474604981380
H          -2.26693220373836   -2.42152200443795    2.14653764096398
O           0.43161992211888   -2.51955986284810    0.38654115500293
H          -0.02216476782734   -2.42739446986660   -0.46038503198026
H           1.28048326855422   -1.30844637848752    0.26463727748544
H          -0.24556849187914   -2.31535770322660    1.08138218142148
