    19
        -40.91289214
S          -1.88194764571047   -0.00336323526663   -1.26740705703168
O          -0.56022112168072    0.38463296652839   -1.66616025543837
O          -2.95663859269424    0.21071564168297   -2.16590474177760
O          -1.87860584416711   -1.43313159482341   -0.75693606912129
O          -2.20026494158416    0.84903971680234    0.05397277686698
H          -3.15144742487306    0.91919580270732    0.06499010518510
O          -0.11260496061316    0.48213496103571    2.00249397790704
H           0.70933253993038    0.95675587579970    1.75780765046698
H          -0.82260228485846    0.89358693387482    1.49879814274317
O           2.24265984411653    1.41071808643632    1.04595534200959
H           3.01043994829740    1.14497746535045    1.55478715848334
H           2.22239201550596    0.84780555815133    0.25118902080401
O           1.87689384007263   -0.35687587987167   -1.03646594899866
H           2.38309040276051   -0.49996762385355   -1.83786016066510
H           1.00492278479622   -0.00259576416587   -1.32340277883057
O           0.15913570870685   -1.72815782325888    0.62924081169052
H           0.90874166247598   -1.46812389718524    0.06625077225163
H           0.05887430585161   -0.98928362038758    1.29240343089509
H          -1.01215022631251   -1.61806356953971   -0.16375218746745
