    19
        -40.91392441
S          -1.06058138310724   -1.92899633340578   -0.38779428877713
O          -2.03132062437870   -2.95400380836669   -0.49745653144370
O          -0.19718917535593   -2.13686639879715    0.84225278331108
O          -0.25862860728726   -1.60580596665161   -1.53173059661319
O          -1.84183071825918   -0.56690183257438   -0.04457798306143
H          -2.54692500371418   -0.82810957165421    0.54282907161333
O           0.24245482659428    1.68867875422889    1.96669611716683
H           0.69535643370476    2.47088069848928    2.28470923185368
H          -0.16492914784436    1.92965438748459    1.10169113100681
O          -0.66251983264668    2.00345827128954   -0.52558334456089
H           0.09797681287752    1.68134373565049   -1.03459337845121
H          -1.30114331729384    1.28146329803560   -0.53528388781071
O           1.35940181236761    0.43908349015605   -1.60629241582349
H           0.74200313310549   -0.32527561419005   -1.69172757492721
H           1.98406646269298    0.36563483436791   -2.32958917399452
O           1.56141506345586   -0.38621469530473    0.97920322269226
H           1.67144235726583   -0.04690665712869    0.06914565175112
H           1.12294273809921    0.34215084284757    1.48525613138020
H           0.58800815973199   -1.42326743446974    0.91284581469044
