    19
        -40.91413651
S          -0.15141286354683    0.27427044496102    1.05549872841939
O           0.85456891362730    0.39924169451648   -0.11794093430937
O          -1.38717391216222    0.89275960805726    0.64132622276189
O          -0.23624255305119   -1.08280737293626    1.47595369480174
O           0.50866995830928    1.12019793529395    2.16257033140317
H           0.27535247057965    2.06826113902621    1.97453186746388
O           2.16403847637297   -1.93193314478985   -1.16146082079983
H           2.38369392733306   -1.62974181267094   -2.04523633143727
H           2.01571429332046   -1.14176451940094   -0.62711524238813
O          -0.63170990162573    3.31128592709637    1.37852477267170
H          -1.21725364905468    3.73774613459481    2.00920550407543
H          -1.15550328098452    2.62611750152943    0.92084982614587
O          -0.48701524324078   -2.57824276598788   -0.81750478510069
H           0.46594294882534   -2.69285413364122   -0.98314151778633
H          -0.54309955061586   -2.30334518752123    0.11142475941301
O          -0.78282253391470   -0.23285104186094   -1.89157093547071
H          -1.56280883279880    0.15251791538629   -1.47820196192336
H           0.27110668141463    0.21659527637453   -0.96492256225153
H          -0.78404534878800   -1.20545359803946   -1.64279062567310
