    19
        -40.90446724
S           0.42504362350190   -0.06389666024853    2.40026560748376
O           1.64367414970419   -0.66768040427438    1.69998576736941
O           0.65379925561481    0.05090998358391    3.79284837744514
O          -0.04686832292014    1.07409950104516    1.66689873155159
O          -0.69148924562453   -1.18450900958042    2.19039096343275
H          -0.50767562098400   -1.87203488102104    2.82647960607270
O          -2.21721376993251    0.31332236918213    0.20324206988879
H          -2.59828926089407   -0.36585631922304    0.76340872050689
H          -1.51930332872358    0.73002634308699    0.73739881359862
O          -0.65312591655647   -0.85781046103764   -1.65079391263217
H          -1.35843564188214   -0.46641461947701   -1.09205853648464
H          -0.62931680260834   -0.34031752018004   -2.46839920397722
O           0.62522278785161    0.95542929604951   -3.36453501647373
H           1.16080012410289    0.77802150876890   -4.13905188838215
H           1.22595451774178    0.99399810827163   -2.61012976229875
O           1.34734221687027    0.36638658556471   -0.55913039491433
H           1.63872888605284   -0.32045992147277    0.72370927538276
H           0.63646235876993   -0.21588553371210   -0.97971919876913
H           0.86468998993363    1.09267164464840   -0.14081001886818
