    19
        -40.92343583
S           1.61766503496017   -0.23183967773757   -0.41893887828359
O           1.69206205700829   -0.93018557639555    0.86511875885753
O           0.99786978419026   -1.04726434708321   -1.44174964263059
O           0.98720466200100    1.07198786775775   -0.28573819272736
O           3.10468876738944    0.03989597064436   -0.86267496627239
H           3.46333094248011   -0.83861292432548   -0.94088840000255
O          -1.50829323840438    1.23086687330245   -1.17677568679329
H          -0.54664048808447    1.23865535606713   -0.97426725111114
H          -1.59095722875072    1.48883746429622   -2.09584694673028
O          -0.79720885456789    1.49258754125143    1.65395226733792
H          -1.52478423329089    1.75553333665156    1.07939826807692
H           0.00218324194070    1.53913825152534    1.08921400367723
O          -1.44883749185291   -1.38788315759638   -0.58073487313866
H          -0.56587087697965   -1.46229928105534   -1.01531684561658
H          -1.76041984077078   -0.49533349401601   -0.83936028389888
O          -0.62700032529431   -1.04536833060456    1.74668509108705
H          -0.79326835729880   -0.03993454121773    1.87961479040467
H          -1.09082586065481   -1.28981741259971    0.81496087324847
H           0.38910232590469   -1.08896390884551    1.50334789452070
