    19
        -40.91855632
S          -0.08455335743809   -1.08714702485427   -0.40950575624985
O           1.24004149609276   -0.72727124220684   -1.08533777897422
O          -0.08521574852034   -0.55319293087003    0.93858559962684
O          -1.20566020964760   -0.70816115297159   -1.20375146822953
O          -0.01006695874251   -2.62526465596173   -0.32803958323547
H           0.62199400109403   -2.82202671769949    0.40970121050190
O          -0.33492976641827    2.15371292590154    0.63155828412926
H          -0.30301852459523    1.24471331915460    0.97078812430361
H          -1.17382235832323    2.21014425556379    0.13292692288106
O           1.40092843366574   -2.53664013872658    1.85162341923231
H           0.99519515884798   -1.65009058575398    1.81812208401539
H           1.04036910624266   -2.98159880174369    2.62264585507000
O          -2.51523027939745    1.65488996695232   -0.88885096643639
H          -3.40545141962580    1.44179451737258   -0.60383238304285
H          -2.10432519528838    0.81348972640163   -1.15443220553048
O           1.47290494255798    1.77360597923190   -1.17766903087425
H           1.35312588531055    0.29636334322973   -1.19415179866456
H           0.77599891632767    2.05715266171738   -0.50948891455895
H           2.32171588786584    2.04552658531678   -0.82089161397283
