    19
        -40.91487922
S          -0.36733028828684   -1.63938569676903    1.10377772389694
O          -0.78740338423030   -0.48250474439206    1.85762378025281
O          -1.33993219851632   -1.87321368569164   -0.04046618810697
O           0.98689171199120   -1.64418023207723    0.66723904609564
O          -0.61010578273648   -2.90285288805698    2.00078278995747
H          -1.50015193080494   -2.82048666841942    2.33530582929504
O          -0.81075920970945    1.74440411681006    0.47520700028130
H          -0.75632667116626    0.95892555595739    1.06890321416358
H          -1.42084258664278    2.35352682380731    0.89544331789975
O           1.76758368157877    2.22237121660680   -0.44194496283269
H           1.70877461938086    2.96549570393377   -1.04481943196568
H           0.89846764818091    2.13333016739001   -0.01639416659172
O           1.65679410050428   -0.25201039962776   -1.59175937298704
H           1.68598089201084   -0.87419498504930   -0.84811582116260
H           1.91907907418434    0.61122577353879   -1.21683863563508
O          -0.91137588291428   -0.02708542898788   -1.60802109072443
H          -1.20177099862762   -1.09493522893775   -0.79839814335532
H          -0.99911848812847    0.75042387627784   -1.02610508025064
H           0.08154569395576   -0.12885326624161   -1.77141982824254
