    19
        -40.92007406
S          -0.60831468511519   -1.25506046292504   -0.05319728928867
O          -2.04737251011775   -1.13707988440859    0.02001833939957
O          -0.07090348221816   -0.54954737745134   -1.23419260530734
O           0.09670198751906   -0.87297201903946    1.14195234205789
O          -0.28555655315683   -2.78624060005432   -0.30861233555658
H          -1.00846205035442   -3.08169868926269   -0.85403096450465
O           1.65584318962196    1.24006570885042    1.07364592834681
H           1.09845144781714    0.51499368639878    1.43478026478469
H           2.28370205902314    0.75234245392669    0.49147442017209
O           2.54164440867262   -0.63996047710905   -0.58569885187240
H           2.64258936264779   -1.44721600696527   -0.07750213658402
H           1.64795707914064   -0.68030646580737   -0.97442950062700
O          -2.25577885413883    1.38958436562039    0.62672056725005
H          -3.10562529854249    1.69995214397675    0.30642642292019
H          -2.24929703055679    0.40882327751374    0.49693179893136
O          -0.06552174703850    1.87467657206502   -0.58189193231508
H          -0.94688169042890    1.86827890665191   -0.06942461181959
H           0.73418692372427    1.75543579930081    0.17016515822811
H          -0.05736254648248    0.94592906871801   -1.02313501422470
