    19
        -40.91289225
S          -0.53496480872315    2.20058748342628    0.13235503602821
O          -0.60999784924418    3.61401401769347    0.20098398322844
O          -1.87627135458219    1.60440711224531   -0.25508054760874
O           0.51606165050483    1.60126652712135   -0.63745226768738
O          -0.32572074090052    1.67019239590327    1.63212824648437
H          -0.70985027926267    2.35120197844052    2.17848625175375
O           0.85858177902922   -0.68667400169750   -1.87532905365431
H           1.19454135480009   -0.52397155265097   -2.75826919450154
H           0.82768651270096    0.18953320840076   -1.42863302621619
O           1.94794646306804   -2.06207714246193    0.24984494302880
H           1.68120698012662   -1.60256550682463   -0.56658601793856
H           1.94797746564314   -3.00031273294768    0.05313361421264
O          -0.19609991153494   -1.20529416792868    1.66270494578397
H          -0.04423677396846   -0.28628491071223    1.90659151311567
H           0.65382523611646   -1.53999015413343    1.30753941817737
O          -1.55226035803422   -0.83940443253065   -0.54458157151623
H          -1.15916953748934   -1.09480364966181    0.33633152866083
H          -1.78954406430818    0.55255817631773   -0.40627367605397
H          -0.82971176391401   -0.94238264798726   -1.18789410528156
