    19
        -40.91633650
S          -0.79776585884823   -0.62414358701522    0.99160179176623
O          -1.83525464108413   -0.97083196064275    1.90153704865808
O          -0.16009483192045    0.65225933282009    1.22482873029726
O           0.20884181624751   -1.72352942907394    0.83060139798327
O          -1.42524558977178   -0.52490494324693   -0.47511432509039
H          -2.11977876860257    0.15927058291347   -0.33569433572490
O           0.47128544555400   -0.32978096737653   -2.47049913107883
H           0.28010467122231   -0.94660152648283   -3.17978296930237
H          -0.28599291648847   -0.35811019531497   -1.86209142774632
O           2.37417085193599    1.28021703867576    0.68164982653356
H           2.34626722139045    2.08695176645236    0.16349427053123
H           1.46985766594402    1.14101539001613    1.02765709920648
O          -2.83519139479312    1.28978288964881    0.74427252961991
H          -3.06603848625562    0.64313614944949    1.42414325272256
H          -2.02851482117169    1.71307309333919    1.06126012812334
O           2.14959509331036   -1.04606014979928   -0.52698057304266
H           2.43925597144719   -0.20854169975417   -0.08266432671180
H           1.11172586729313   -1.45893634813657    0.24332197489278
H           1.70277271460114   -0.77426544648000   -1.36154094162737
