    19
        -40.91743099
S          -0.16803517858903    0.78410682171467   -1.09826635970164
O           0.67275581597623    0.99757415861217    0.20477588309901
O          -0.81133648945047   -0.50112765673019   -0.98480932704128
O          -1.02546594763496    1.90398341847504   -1.30037804007377
O           0.91683180653066    0.73023333222878   -2.17377738324347
H           1.32664162265382   -0.19968871285421   -2.09314270944823
O          -2.29851254929820    1.65746382388406    1.09969132490945
H          -2.88258695978380    2.38880976677133    1.30984040344439
H          -1.95535242386274    1.83076797986711    0.20661673034170
O           1.57422370379164   -1.67616329913434   -1.67923571468735
H           0.64801967973135   -1.94553252311559   -1.67946524530721
H           1.85240248772723   -1.70528639404599   -0.73848409114247
O           1.92938511332963   -1.46484737739899    1.00629842255950
H           2.27245763456491   -0.57388867261383    1.11518931123455
H           1.09201684382843   -1.49383299910618    1.48323486770364
O          -0.79625570970913   -0.51441129271975    1.68221898112613
H          -1.06656671866821   -0.87450800071475    0.81910755392695
H           0.19318102102830    0.50487835483776    0.93599634054713
H          -1.47380374216987    0.15146926204329    1.88458906175957
