    19
        -40.91915230
S          -0.79388824825938   -0.25839114998015    0.91667531770840
O          -1.47446727052581   -0.46725142119007   -0.45426931807760
O           0.50062902614174   -0.89958105763569    0.86940501969263
O          -0.79364693882883    1.11813946759950    1.27735970430774
O          -1.72568638462981   -1.05387103740106    1.85072720044371
H          -1.61311232006400   -1.99492327859668    1.56391816125291
O           2.65734528150345    0.65958215552493    0.28326891490431
H           1.95315684346527    0.07143647747398    0.60803446227441
H           3.15287072644960    0.15757062887779   -0.36638650339431
O           0.84439919415032    2.55046064700427   -0.37623211961128
H           0.25097197780043    2.35559253711957    0.36592720551403
H           1.66544931028980    2.06208037900917   -0.16666540095421
O          -0.89755155920519   -3.17350416390258    0.59614470324923
H          -0.08232249892378   -2.64516626007075    0.60759938710405
H          -1.25393450815206   -3.11197125505950   -0.29431713902467
O          -0.40633958560369    1.10347546158945   -2.09886595839987
H           0.14050197975762    1.71372433659432   -1.50450676533501
H          -1.05107988265506    0.15247619675821   -1.17017397785224
H          -1.07329512270973    1.66012134628525   -2.50764288380252
