    19
        -40.91597559
S          -1.01866744887734   -0.86300584647449   -1.26272870041954
O          -1.61394545033556   -0.26286515795142   -0.05296408879014
O          -0.82628703192797    0.14607606144844   -2.28948558001956
O           0.15342923211845   -1.63871633884536   -0.96492498954287
O          -2.11565601883438   -1.86048688258468   -1.80939471244887
H          -2.81082946930427   -1.27169797176506   -2.08620759527262
O           1.21761981640921   -1.87858987829210    1.40908436845054
H           0.74115307509334   -1.82949375215196    0.54628078365971
H           2.08702001544281   -2.22378075856042    1.19711417003783
O           1.09302172568458    0.48576502139623    2.49664525127671
H           0.60941379019689    0.35352927844937    3.31452611433252
H           1.19471190018903   -0.42103830079412    2.09056547924741
O           0.91035716818047    1.84568429418303   -1.42951395046201
H           0.33385538195505    1.15696202941600   -1.85912233290314
H           0.82466134585147    2.63673660531744   -1.96599984227744
O          -0.33703808811196    1.66647647919031    0.77306921434586
H           0.27729738123505    1.25141184516609    1.49775882062220
H           0.24298410386950    1.85493172541527   -0.05178499033935
H          -0.96310141878992    0.85210154714280    0.44708261050610
