    19
        -40.91386741
S           1.02672510172090    0.81217650928319   -0.74707154371875
O          -0.34330093574960    0.74630963994615   -1.13986977496508
O           1.52578594335944    2.04651028303978   -0.23544768886184
O           1.36766255726942   -0.32018780171236    0.21492793557765
O           1.88216754936244    0.44600576253449   -2.03334848732924
H           2.73508722202276    0.86472964265768   -1.93735266033786
O          -0.65763335781868    2.12285771106921    1.39207938243465
H           0.19977017933596    2.28189923030531    0.97292153213679
H          -1.31965318422980    2.30195191805477    0.72032655980604
O          -0.91620523857572   -0.49034068537679    2.14550283722570
H          -0.90131877730253    0.47974951062957    2.04310974191402
H           0.00262002277286   -0.76797299713282    2.12493132409528
O          -1.97145645873006   -1.27791284128112   -0.19085672719201
H          -1.78829816177154   -1.09668168391705    0.75799070812563
H          -1.75709004869696   -0.45067484371908   -0.64579780669715
O           0.28519833570678   -2.28182906713982   -0.85212669522013
H          -0.67422337300219   -2.05665642404688   -0.59656846285434
H           0.34961124150365   -2.14928055380998   -1.80122032426888
H           0.95455139285161   -1.21065329947906   -0.19212983982472
