    19
        -40.92003351
S          -0.70735660212147   -0.04338380571960    0.52129372357500
O           0.24213087592529   -1.12659918069811    0.56575923762865
O          -0.86612385867181    0.59273677530430    1.90423072246142
O          -0.35839293258517    0.97368956483537   -0.44211315198158
O          -2.11752873445704   -0.57517136795359    0.25655033885893
H          -2.17323015837287   -1.01885619742090   -0.66202521260361
O          -2.07506395016849   -1.51879186104163   -2.10547572521239
H          -1.11253430490681   -1.37999866757949   -2.30683023865196
H          -2.56540580601229   -0.94384808552482   -2.69816316523255
O           2.43635752618847    0.14113393844108    1.43606834383201
H           1.72295841340375   -0.42696286083726    1.08638193483341
H           2.78579191717714   -0.30689373986412    2.20909561475581
O           0.46484613560080   -0.85058405848784   -2.24310223245120
H           0.31357659669294   -0.01017649929115   -1.77636236571015
H           0.89687777474922   -1.41768074761891   -1.59633031509573
O           0.93320363565018    2.34063002106647    1.61574418763818
H           0.71508891923947    2.49717514146546    0.68897745923271
H          -0.20878965117909    1.38064277186730    1.93970632807411
H           1.67359421386975    1.69293884906947    1.60659451602225
