    19
        -40.92118206
S           0.73538224665334    0.31996534539708   -0.96770619000536
O          -0.17506156550933   -0.79760528823381   -0.88372820011518
O           0.61766854790653    1.13901263707426    0.34735854210334
O           2.09540172319866   -0.04234510970901   -1.20969075983817
O           0.25665722571977    1.32313910594090   -2.01084259448233
H          -0.67689821739424    1.63144421802571   -1.74036816769755
O           1.89198630957346   -2.21778604723298    0.37562577103839
H           2.23141305430588   -1.54018138392195   -0.23631143451920
H           1.12009113628862   -2.58214676261240   -0.06868677654515
O          -2.10163994382615    1.90544724365021   -1.23936482604719
H          -2.74185874752766    1.62649250528926   -1.89861621410324
H          -2.22906253981785    1.30784683934520   -0.46010980563820
O          -2.19211561274012    0.02807239474305    0.62372916884670
H          -1.53075829896432   -0.46526818588511    0.09802543182493
H          -1.79936938139082    0.15655631809082    1.49005563862202
O           0.90840055927093   -0.60218011987538    2.19954469982770
H           0.71485070352039    0.51968428766849    1.13719768749232
H           1.27094370000224   -1.32427157592986    1.61885291761075
H           1.60396909072635   -0.38587640182194    2.82503509162534
