    19
        -40.91370581
S           0.96514832522408   -0.15183615450080    0.43554557971307
O           0.31956559252147    1.24631112514036    0.66028747801789
O          -0.00488974835230   -1.15686598780199    0.75647449599693
O           1.54798052606222   -0.23983653584760   -0.86309593811713
O           2.09526390386763   -0.13654127626200    1.48861285921114
H           1.66449398382001    0.11361401954351    2.34024093157364
O          -1.79882867688842   -1.12609062390962   -1.27465168289682
H          -1.20623018851375   -1.33887688204915   -2.02398995935331
H          -1.29119732658090   -1.35823759357482   -0.47771696917414
O           0.31023287804571   -1.52650869572494   -2.91292055540136
H           0.84668676644761   -0.99143858478633   -2.30144834112798
H           0.74596797099907   -2.37823804142725   -2.97643627839756
O           0.68458420361822    1.01673911232518    3.35964851507186
H           0.22252253329620    1.36957058827380    2.58593317932808
H           1.14211794933981    1.74994869328328    3.77946250695589
O          -1.61468972282532    1.40970373527576   -0.91927093910150
H          -2.41616759933979    1.68844119384617   -0.47003206368404
H          -0.45777249388748    1.37346144038821   -0.02172168372159
H          -1.75478888751058    0.43668048849564   -1.16492115538243
