    19
        -40.91484839
S          -0.64457455972723   -0.30437157069997   -0.33695369504134
O          -0.10582843066384    0.25299685193363   -1.66956209917882
O          -2.06938181509267   -0.22017002165537   -0.39072213023779
O          -0.05017417559540   -1.57755281581473   -0.06510569830595
O          -0.08066303410904    0.70429703147441    0.71100279033885
H          -0.62697076909341    1.52563079709045    0.62825550296073
O          -1.75956106678693   -1.38989732769370    2.16095046898989
H          -1.12574314640224   -1.90577655282658    1.65590673528541
H          -2.39952577626376   -1.06667994751546    1.52188272536877
O           2.35901207651223   -0.86684369035919    0.88201524712027
H           1.53285818839359   -1.33572448100992    0.66551826049178
H           2.12146680739651   -0.22562512860637    1.55657056052210
O          -1.83767847550157    2.44025247394155   -0.10383654902395
H          -2.34009174315017    1.62437129497158   -0.26329038789095
H          -1.62328026103966    2.80529934830488   -0.96605017944209
O           2.42536597391800    0.10869904419146   -1.55706342942638
H           2.55387830991939   -0.19828191225484   -0.62036540828955
H           2.75088047900192   -0.59894290507227   -2.11882760459368
H           0.92001141828025    0.22831951156895   -1.69032512964573
