    19
        -40.92120562
S           0.00254665227988    1.05971431453602    0.88459609562220
O           0.93079187484242    1.10500698823813    1.98074131990479
O           0.63721553288509    1.25241489096966   -0.41978672127490
O          -0.88426446043519   -0.09227451267143    0.86989992780588
O          -0.97512750694517    2.31029209652220    1.05943451301583
H          -0.43448611620130    2.97108534765552    1.48180077667529
O           0.29034150081607   -2.19250837976142   -0.30011133666564
H          -0.33531564422824   -1.72200678018602    0.28263999942757
H           1.16441209645329   -1.96764278826293    0.08534479516959
O          -2.33711108811071    0.24645402993601   -1.28302681626409
H          -1.97739127890528    0.11217119215600   -0.37591374847405
H          -2.56769694565073    1.17527863935629   -1.34420832760279
O           2.26782479240386   -0.99078022208822    1.01453856023168
H           2.84398762905619   -1.32135213959276    1.70697124926796
H           1.84419102151001   -0.18622722125678    1.37187205747561
O          -0.00781862404039   -0.46706134861558   -2.07727929747301
H          -1.00130479148741   -0.27531481759933   -2.00833080452527
H           0.38446309848251    0.30215977577440   -1.47479079324565
H           0.15474224733111   -1.31940906536811   -1.45439144920259
