    19
        -40.91885157
S           0.41240757287219    0.66263021448065   -0.94777793956108
O           0.22186755352323    0.91657028579176    0.51412590522222
O           1.09948751366535   -0.59902722673241   -1.12682993974547
O          -0.84973180438965    0.74879645324974   -1.63963682202234
O           1.31957845390196    1.81602466117689   -1.46232352660540
H           2.07680455267589    1.80592501115608   -0.84270086898687
O          -2.90820017923655   -0.38402383360516   -0.54823365223912
H          -2.18382714747120    0.00938512482237   -1.10311157248907
H          -3.56930194939974    0.30416917677207   -0.44780871232949
O           2.74546738516459    1.65622416654579    0.76020982941458
H           1.84894710232482    1.32059298207331    0.95189321106180
H           2.83922245172142    2.48363296366618    1.23792218311151
O           0.19438922112938   -2.57864225991652    0.24904581704817
H           0.56541989010453   -1.90934580532249   -0.39103954167359
H           0.94688383880462   -2.93060187068378    0.72934177460718
O          -1.29093877938146   -0.85766079957070    1.33192188938031
H          -0.64781267742991   -0.04514299267952    1.08489206180035
H          -2.06919819813578   -0.74212027240236    0.65979447386959
H          -0.75146481044845   -1.67738596882912    0.99031544013112
