    19
        -40.91990214
S          -1.01208946772715    1.11292214690569   -0.13637636090298
O           0.39088695212495    1.21361686000202   -0.50668223928309
O          -1.36913913627800   -0.30848072166259    0.07745160659642
O          -1.37897252769780    1.93971590576313    0.97548486672843
O          -1.84332322539683    1.56879002859671   -1.39718145743777
H          -1.38151828741886    1.20500658316501   -2.14977232564671
O          -0.42236402133108   -1.64475525559002   -1.99495342810401
H          -0.88699398985382   -1.18163778798771   -1.26532844315601
H          -0.89652100659503   -2.46470370656337   -2.14248480861177
O           0.51845805245806   -1.14195041810542    1.48684601905239
H           1.19704904810052   -1.19139037516607    0.64853954726472
H          -0.37071490494864   -0.92622810053916    1.00512351373018
O           1.81251675502941   -0.97425706157601   -0.63040076008796
H           1.50610544886557   -0.04109540612678   -0.71327502045072
H           1.25098786594695   -1.44780122354722   -1.27478880161683
O           0.78704587618526    1.24814803347789    2.30475048432705
H           1.45057034265520    1.67860991673825    1.75732046537081
H          -0.07393469195655    1.60734263619176    1.98935327438868
H           0.72195089786047   -0.25185205392411    1.96637387785957
