    19
        -40.91833237
S          -0.03069507401475   -0.46733994769544    1.66239983483308
O          -0.54272753415547    0.66662016589412    2.39062861884836
O          -0.90684009743778   -0.95745464143866    0.61669109066524
O           1.32677158477063   -0.22282053537683    1.15027401147209
O           0.11394727820778   -1.65330887545514    2.70278850640738
H           0.48561035516680   -1.22706549498571    3.46917568943354
O          -1.56870365916026    1.70072035922974    0.19945853737239
H          -1.18989577988678    1.50380869776369    1.08254795078284
H          -2.11082506131711    0.93033829570514    0.00660532405612
O           0.24611102595747    1.86780508369959   -1.67990440985903
H           0.71521849758634    2.69099347056209   -1.53166589450573
H          -0.47377452760492    1.83372106341114   -0.99023040087241
O          -0.10975501711449   -2.06487330043853   -1.58563394657157
H          -0.47275101358870   -1.80418517825754   -0.70064677470768
H          -0.81881776195839   -1.93564297859788   -2.21898746804216
O           1.62297882484632   -0.22988955758043   -1.28620266844639
H           1.01992536332361   -1.01493551193537   -1.55067303085794
H           1.11218799742755    0.63175727651603   -1.52721203122748
H           1.58203460896963   -0.24824839101106   -0.20941292875904
