    19
        -40.92079090
S           0.56764714584291    1.01662012544559    0.92267070858324
O           0.76791579048551    1.31350298815674   -0.49700274706303
O          -0.63044408904342    0.21404854356994    1.12624876285423
O           1.75023153015769    0.48371014037713    1.54825730462689
O           0.25440865982709    2.40440518511678    1.61633015429151
H           1.08774699385025    2.86340954655596    1.57877849455493
O          -2.63719669155912    0.76545954780455   -0.46971294645571
H          -1.97808276473069    0.68927864015174    0.26018091813811
H          -3.37248190953870    0.19595140840062   -0.23446849724927
O          -0.71626419632450   -0.00502650918341   -1.97550105296126
H          -1.59891681455661    0.32464910306717   -1.59798977729908
H          -0.02277195940475    0.61293925406236   -1.47731649064462
O           2.26154821336002   -1.62694273021675    0.04206928783895
H           2.83362853031212   -2.21402738201832    0.53985434860531
H           2.16887748949048   -0.81256314882860    0.58243224691013
O          -0.31398977255093   -1.92304566871524   -0.43519659490841
H          -0.55218651640488   -0.93332756184078   -1.47657063424228
H           0.66570747298505   -2.01858390214011   -0.38012494925226
H          -0.53537709807860   -1.35045756701747    0.32706145599913
