    19
        -40.92136407
S           1.11413173995092   -0.79211939765041   -0.23038443519858
O           0.55568203102595   -0.62808188647297    1.12340445231878
O           0.99320876827792   -2.14579777936786   -0.71172234545659
O           0.58566111332488    0.20901354718044   -1.12937414761059
O           2.66497118623587   -0.48879007167860   -0.07519156676055
H           3.05301357440620   -1.33982041035463    0.10764499484003
O           0.89248364436917    2.01527583147949    1.44924897443206
H           0.85820921863499    1.04072899902407    1.48521289675269
H           1.73048686026491    2.23600353426551    1.03905024929842
O          -1.18190816061791    1.91594009577270   -0.22032746213447
H          -0.54199150752821    1.44897466074778   -0.80512968417966
H          -0.60187065779355    2.26820627175662    0.49047983346384
O          -1.52770780487881   -1.70345342726517   -1.33931660389058
H          -0.62837855723782   -2.05167425940908   -1.14327881738415
H          -1.41927443767410   -1.14685708790329   -2.11553862796541
O          -1.89442994703092   -0.25772264169955    0.73142134242512
H          -0.95478059875604   -0.47059749794755    1.08710958442963
H          -1.74674380664193    0.75672488941844    0.34702779541296
H          -1.95076265841867   -0.86595334996227   -0.09033643261702
