    19
        -40.91229164
S          -0.52677229326300   -1.93756170219099    0.65801135569097
O          -0.30512489611868   -0.95318754487068    1.83599464446871
O           0.41979801854120   -1.61160138335619   -0.38384421456521
O          -0.57298860937130   -3.28090281213579    1.09542577357016
O          -1.94639453009170   -1.52039585608781    0.17154802437815
H          -1.89882553428680   -0.58456857368488   -0.13998548737619
O           0.83932836071719    2.05326257929351    0.08774627818871
H           0.97200407661197    1.61464534822738   -0.76813286684266
H          -0.10809240383376    2.00843504326744    0.25217943860731
O           0.57139181892634    0.34938298578896   -2.06867448490598
H           0.99491417149815    0.06158678991811   -2.87865924825948
H           0.60662868370844   -0.42540439278209   -1.45118050341534
O          -1.76210547031111    0.91121720659174   -0.85619009787125
H          -2.53890765132552    1.05771654432428   -1.39959015642227
H          -1.00581984353963    0.77361043060520   -1.46293810071718
O           1.92212197696229    0.29960684432728    1.76140799363828
H           0.61788843523141   -0.54860411392446    1.79880064526061
H           1.64040251837655    1.01386016529038    1.13814978294744
H           2.08055317150259    0.71890243140158    2.60993121364377
