    19
        -40.90789758
S          -0.81839237256466   -0.20578196616244   -1.72432904285438
O          -1.76076366051558    0.67778822175480   -1.10165302100042
O           0.46430957702523    0.56509709748132   -2.06771027298195
O          -0.53947837280676   -1.42181364335671   -1.03846092127449
O          -1.34696318060962   -0.55704948831274   -3.15460641990814
H          -1.70308346125576    0.24864523126918   -3.52337503311375
O          -0.82537444098262    1.19626269319910    1.39329796202903
H          -0.80478486939181    0.30644565938764    1.78173838424015
H          -1.38929794970865    1.12504004782205    0.60474407771047
O          -0.52822983646857   -1.51879466706062    1.65337299604799
H          -0.78541662261542   -2.37678829915869    1.99510493536197
H          -0.52256639687021   -1.59352301193662    0.68064663015670
O           2.28447432630839   -0.93275942085754    1.74880110176267
H           1.36090485510992   -1.19323616153401    1.85845303417242
H           2.27324346841008   -0.19115747111216    1.13676945919231
O           1.40868453654998    1.36604363104602    0.12924883873992
H           0.91969083170182    0.87890483040599   -1.20379426797519
H           1.72600200912560    2.27178797356625    0.11247960431411
H           0.58704153961616    1.35488874361685    0.71927196536816
