    19
        -40.92021758
S           0.48303905825965   -0.45538491954943    0.83139167518453
O           0.40453348918553    1.05868484982235    0.76930877084996
O          -0.83528062157391   -1.01363603456043    0.58609466046980
O           1.51631908550907   -0.95130732594232   -0.02148275899057
O           0.86439453779243   -0.73594061913032    2.30156202921543
H           0.03048453574665   -0.61933687871888    2.82123809115506
O          -1.61821129170702   -0.67614577803992    3.08119216128916
H          -1.93578266563486   -1.48384377138720    3.49237863951932
H          -1.67318252017683   -0.80722476264482    2.11533801425939
O           2.32704102807880    0.33623069238351   -2.23521602109780
H           3.20885745036637    0.66339702301382   -2.04764933676728
H           2.10860415371144   -0.28896798916899   -1.51806487181000
O          -1.70852911607239   -0.13033745379188   -1.79629031549832
H          -1.42805227803432   -0.58820878599210   -0.98093393804722
H          -2.64459207280646    0.05483928054311   -1.69976400404969
O           0.17501397653315    1.73148227776210   -1.59203076435241
H          -0.56751072307694    1.14143644207970   -1.85939016205115
H           0.30572390849873    1.43070119546258   -0.25507438946713
H           0.98713007529981    1.33356254753660   -1.99260749977697
