    19
        -40.91103803
S           1.13143938118366   -0.87892073439970    0.53058301139584
O           1.27796947567655    0.01165559219667   -0.64089788517454
O           1.57084705793792   -0.20079725151599    1.73331318939504
O          -0.20243376191053   -1.41601797178483    0.61917882566997
O           2.10945695149270   -2.07845115380017    0.26994128032192
H           2.96879591653768   -1.67290701368875    0.20047284215838
O          -0.15134977062542    1.69804996825540    2.01706527192886
H           0.49123337210275    0.93647593826273    2.03142666258374
H           0.29825847048772    2.43492886390890    2.43716367735375
O          -0.19141935792584   -1.09644203664639   -2.76697524844052
H          -1.05880118167236   -1.03030851688011   -2.36022004552071
H           0.44480991517339   -0.78582902852770   -2.11070019847929
O          -2.17963071657088   -0.27863715276778   -0.58334036562146
H          -2.95802683270721   -0.31980113032079   -0.02426504689150
H          -1.49066298408697   -0.84970054201706   -0.14930975513893
O          -0.54936640853675    1.66106051909113   -0.47498850762615
H          -1.33405713306926    1.00811328985484   -0.60552193726827
H          -0.46996164323295    1.81859141794786    0.54388924891928
H           0.29289925939319    1.03893692320029   -0.66681502991959
