    19
        -40.91376635
S          -0.18018896693917    0.50258752025048   -1.12813647113013
O          -1.20960547056750    1.31944019750929   -0.47137831132371
O           1.14222294341495    0.89236926339958   -0.65675785088764
O          -0.45695584401710   -0.90727206458658   -0.98810600905698
O          -0.24497533924646    0.84549274928273   -2.65814182436926
H           0.28039946322236    1.63127887424904   -2.78246234179303
O          -1.61471573953402   -1.79908079026647    1.17451391423419
H          -0.99775585868006   -2.43267105033058    1.54839538659438
H          -1.27635571932074   -1.58460544555000    0.27077713638133
O           1.15257120238679    0.65159573522636    1.93151377361971
H           1.65788745186627    1.38045529821092    2.29783130196813
H           1.25908885135315    0.70781575041784    0.94645895951005
O           2.02555377375066   -1.17174761865087   -2.27185643945623
H           1.14603502048643   -1.52353794068683   -2.10537756478801
H           2.09506900921585   -0.40672940389560   -1.69111018474741
O          -1.38335464862938    0.61588494909842    1.88127259924739
H          -1.42685788076275    1.00528789961992    0.88425968500576
H          -1.59006465709255   -0.38757364457607    1.73806061800839
H          -0.37799761073280    0.66100973125338    2.08024361281893
