    19
        -40.91739516
S           0.00687222071457   -1.27212110695145    0.09170705349594
O           1.19631743945103   -0.54248213560505    0.45156036422311
O          -0.94377057504435   -1.38014016894652    1.27296215756368
O          -0.65529406225432   -0.74113805735542   -1.07031574119926
O           0.35388097272206   -2.76604413249560   -0.13824122364421
H           0.99175327746789   -2.74235942909024   -0.88399390682397
O          -0.63300053051310    1.92440963144863   -1.47506604264045
H          -0.66291069817786    0.95062895293450   -1.42624069715938
H          -1.54053960285705    2.21438296203968   -1.58456163291908
O           0.47801345629555    2.02627129294655    0.98291754820324
H           0.99357230961834    1.21000172205966    0.87331905426401
H           0.15640409504729    2.23686482966415    0.08266985061362
O           1.86559949688570   -1.67591829670419   -1.97968465378706
H           1.16704011501043   -1.20748057790149   -2.44802856353692
H           2.19501706348568   -1.06590867314150   -1.30797270290299
O          -1.53125858144963    0.90107190628573    2.12559867621816
H          -1.24924821654250   -0.44621849076503    1.63403123681803
H          -1.40425446993329    0.92395516045350    3.07719138030607
H          -0.78419368955359    1.45222461104959    1.72214784224349
