    19
        -40.90789744
S          -0.46600809755779    0.17127188671844   -1.85589075821548
O          -0.60668885036601    1.61620703150380   -1.35668033563205
O           0.92263984070229   -0.16572174663003   -1.97679184579786
O          -1.27460818276990   -0.72979124474715   -1.10654706546955
O          -1.06695591227100    0.29298020757492   -3.29557254191211
H          -0.40794223282598    0.72646547727984   -3.83386862201367
O           1.88698343584037   -0.42504204982529    0.54748397205736
H           1.78166919336381   -0.45277824459581   -0.41846825527074
H           1.33799996071130   -1.14852878349405    0.89151414080032
O          -1.10523785627376    0.02669386170643    2.82078233509590
H          -0.77162314416735    0.76876093744055    2.30831010967672
H          -0.82847316663441   -0.76502240742036    2.34191371038758
O          -0.27253900198295   -2.05063755316272    1.01645726162214
H          -0.72572153377945   -1.63465017347217    0.25923839546196
H          -0.68209774021902   -2.90756476327109    1.14702311113361
O           0.44722304592637    1.67153309721407    0.93327150821036
H           0.99705332605833    2.44191775448356    1.09318966255003
H          -0.23313211886278    1.69028690000076   -0.40400678170766
H           1.06745904524429    0.87361981269649    0.88864198897065
