    19
        -40.91335387
S           0.01169814252974    1.46899136574244   -1.20459696424821
O           1.32175175710440    0.90436378690783   -1.32760921343815
O          -1.09344871155032    0.59560365895802   -1.40938437739715
O          -0.11304371786523    2.20823555079477    0.14068071239491
O          -0.10055941697687    2.66589799288716   -2.20798371139267
H           0.74634779440898    3.10600485798477   -2.18956936623405
O          -1.81327917899937   -1.08906738639701    0.61314233526940
H          -1.25881722599165   -1.87015178123712    0.37679985194762
H          -1.84899821706543   -0.55749056191926   -0.19774228001763
O           0.03889484132678   -2.81387807595288   -0.21890549638207
H           0.80448121278665   -2.28774163795108    0.10349255847997
H           0.10777332263196   -2.82488979927093   -1.17489596863743
O           1.86053790622248   -0.99973696368014    0.56407133392256
H           1.84469738701935   -0.36658195907275   -0.17168603482161
H           1.41293155203562   -0.56372996313102    1.29808869302696
O          -0.23250296824863    0.41998640693210    1.91249167363908
H          -0.65371540101796    0.71735468273989    2.72195253452750
H          -0.88983371514216   -0.23282455475306    1.46972016218270
H          -0.14491537320358    1.51965439031376    0.90193356711782
