    19
        -40.91898001
S           0.20444757993742    1.08282471595539   -1.20410239920897
O           0.61507774800083   -0.32271194683592   -1.37012873930700
O          -1.01463982798326    1.38354219420759   -1.90750737017181
O           0.18153455395796    1.43358517186567    0.20673397610006
O           1.36031179387192    1.94391259436987   -1.85870000599922
H           1.12519731571342    2.02324522403841   -2.77940464976672
O          -2.31005896283463    0.52467282091228    0.26054528592873
H          -1.54880149424893    1.02415958733579    0.61012872690201
H          -2.36922506870681    0.85409029479331   -0.65252222738015
O           2.11678275564385   -0.18071328319948    1.00681594403491
H           2.33231549149985   -0.54190104406446    0.14143484885698
H           1.50229585763090    0.55839267860570    0.81736855475409
O           0.32498718699002   -1.76420962514603    2.05180930797599
H           1.11177664143222   -1.22893890528481    1.74533064759900
H          -0.05753431469035   -1.28539878669844    2.79004071092180
O          -1.03411844183358   -1.64141057780599   -0.07259734226348
H          -0.31791628153426   -1.19431913112042   -0.70881241462310
H          -0.52307180989426   -1.80090967109404    0.82368690880865
H          -1.69936071338405   -0.86791232086025    0.09988024686656
