    19
        -40.91892634
S          -0.03862310924910   -0.43026807264860    1.36784567293980
O           1.11322877024028    0.33815239675729    0.85917195681937
O          -1.25415892948545   -0.04645204277700    0.69407876998811
O           0.23367308289616   -1.85144046711615    1.36107824100897
O          -0.19769479955070    0.00583561181249    2.87954276052027
H           0.48754721095560   -0.47043841197689    3.33926284802628
O          -1.18308881011920    1.17848180812559   -1.76765646836055
H          -1.01698479294621    1.96179401205106   -1.19549476133526
H          -1.66326141237478    0.57347852538073   -1.18028384773335
O           0.37671866677989   -2.39994562854776   -1.17392109614682
H           0.99939411333962   -3.12208401479336   -1.28278297841428
H           0.24014982110336   -2.29418809613331   -0.19750831101559
O          -0.58111410272319    2.55624276058570    0.44061520761552
H           0.35200061330165    2.46663261849752    0.65539497061704
H          -0.99256484977301    1.74716659564377    0.78793186657959
O           1.02657810177068    0.01920475197154   -1.59943354934198
H           1.18201336230283    0.21667347449955   -0.57806505824095
H           0.80130434969441   -0.97947243431219   -1.60000620742666
H           0.11488271384160    0.53062660297694   -1.80977002609154
