    19
        -40.92071445
S           0.92541334424685   -0.30705618762434    1.11630954909421
O           1.13727284079256   -1.70221250331727    1.42644862476604
O           1.33683225286664    0.01242633643960   -0.26517885170400
O          -0.42148303769536    0.15342938280214    1.36332925792557
O           1.89221844009992    0.52133060182233    2.05197847369538
H           2.64005642683639   -0.05616176525210    2.17632376836558
O           0.55907041338894    2.43979277481180   -1.10123551953287
H           1.07895543214776    2.69431214948063   -1.86500321983415
H           0.97517755431266    1.63406920033934   -0.73520100356510
O          -1.13253021231791   -2.41155324729958    0.33222035444181
H          -0.25494236549693   -2.34152645565358    0.77722201688176
H          -1.75140026994520   -1.98671131849926    0.93347407608616
O          -1.76329452897385    1.22285121786518   -0.62683947782971
H          -1.46014533250676    0.96968092413057    0.27553536514736
H          -1.12758628235664    1.91902926752601   -0.89610609558520
O          -0.66508476712115   -0.78754680499126   -1.56435614994303
H          -0.95155041691400   -1.54341117247817   -0.92556347245024
H          -1.26934196501150    0.08472339815315   -1.27984103323286
H           0.25236247358647   -0.51546578820567   -1.19351667272685
