    19
        -40.91912304
S          -0.09348729551939    0.49159861153222    1.23814495339501
O          -0.61611790308848    1.16942188269662    2.38120771300587
O           0.88236504777319    1.41346528131253    0.51683554195116
O           0.48823967427569   -0.80089834737916    1.43961680622733
O          -1.26027642110926    0.28938178081503    0.20099204235460
H          -1.81040145053041    1.11327444134127    0.27976418047254
O           1.53710623618714   -2.38508917296647   -0.40953823198576
H           1.14588049149307   -1.87961629516091    0.33251072129434
H           1.89454913447098   -3.18835801616758   -0.02866591191262
O          -0.35245693820227   -1.13030160280569   -2.09266541990602
H          -0.91881017983126   -0.76532984697099   -1.40197463344245
H           0.09576234491447   -1.89379904774102   -1.70155654046588
O          -2.40904315464988    2.47025530126299    0.96299905696093
H          -3.29094053629650    2.42766014529468    1.34124065593510
H          -1.77917159341048    2.31984162025745    1.69410862644947
O           1.85950594226867    0.17704148628096   -1.43863837474693
H           1.33249251449947    0.94355785895984   -0.29820614839464
H           2.23704256592513   -0.64395575075399   -1.08853980420067
H           1.05776152069533   -0.12815032001937   -1.92763524302750
