    19
        -40.90865254
S          -0.63238551398779   -0.16250469633991    0.09366930640301
O           0.46831260042975   -1.08251977224348    0.00578462591413
O          -0.10725124315220    1.13895632110492    0.78436715580624
O          -1.26599199872900    0.18798725966433   -1.13255481586126
O          -1.67167489064265   -0.65653080210426    1.11424623248172
H          -1.22861605710141   -0.68479870948333    2.00022638508564
O          -1.45922182032160   -2.65526903942271   -1.37661507698241
H          -0.61327969718596   -2.54084305606763   -0.93587984765910
H          -1.73284735583282   -1.77539608000692   -1.64951405168139
O           2.22591641378906    0.17987283288284   -1.59916576531487
H           1.65500306934994   -0.41787041993364   -1.08185153982647
H           3.12820733430655    0.00218015843773   -1.32641474684329
O          -0.26203814732410   -0.12862754399368    3.23886997523655
H           0.17571938412262    0.52033199839984    2.67278557686106
H          -0.74546073990134    0.35764675323775    3.91246775102121
O           0.62855262988907    2.29077644360351   -1.32762464725196
H           1.35005586235454    1.66382949507674   -1.56053352256597
H          -0.13236913000334    2.01302037370011   -1.85130224377626
H           0.21936929993418    1.74975850348206    0.01903923895543
