    19
        -40.91905000
S          -0.25402822822694   -0.89923775764444    0.69991525631599
O           0.16213698263862   -0.99604453867200   -0.78048776206460
O           0.87886269744476   -0.39747983668466    1.43655915699688
O          -1.46964464355072   -0.16318539093756    0.82008387337074
O          -0.50292973432390   -2.37395469235633    1.10252334072323
H           0.38486034063883   -2.80650935355631    1.04284675762351
O           0.08366804044642    2.19707427811385    1.19256068787341
H          -0.81001066803581    2.04157316784871    1.51094456707444
H           0.55841353218592    1.36877706438870    1.36681605317528
O           2.05145406270512   -2.71981235746166    0.72485526572785
H           2.18961367659983   -2.60059781408410   -0.21884029180877
H           2.06389660707666   -1.83281390389581    1.11872056616920
O          -0.26234425478606    2.55997525169551   -1.44699381061645
H           0.59987899930796    2.69871615288403   -1.84147388351751
H          -0.12156467704143    2.52535416545186   -0.47401812677622
O          -1.61780247604826    0.34262248134961   -1.89376805881954
H          -0.55809434882693   -0.50292728725410   -1.36416506231468
H          -2.19738081963357    0.32667433246516   -1.12133767544683
H          -1.17898508841366    1.23179603833160   -1.87474081369611
