    19
        -40.91596176
S           1.17286080771671   -0.98455879677099    0.07375270349880
O           0.12354102449193   -0.88581110796292    1.06704949469781
O           2.48487407324704   -1.17308197600120    0.58021835977973
O           0.80206715268042   -2.00109573634607   -0.97989355514623
O           1.12833090160559    0.37119437865070   -0.75233885490709
H           1.37398035637796    1.05226321953980   -0.09607087315319
O           1.68317698159551    1.32604786870204    1.65795164931938
H           1.16601184294110    0.57618364277010    1.98023339226261
H           2.60382921381837    1.08123299344741    1.78830149317937
O          -1.39698542527233    1.33986469031993    0.87170436382573
H          -0.86667122241403    2.02319912072920    1.28676959940555
H          -0.94488585956998    0.49552760694531    1.04917208117949
O          -1.52410112054451    0.81654226333593   -1.78021507251796
H          -1.65498941254514    1.18331938752687   -0.88337879149844
H          -0.58013529429077    0.88918598537051   -1.95435346672769
O          -1.67253793420488   -1.71007655823430   -1.11967697480755
H          -1.74950219449317   -0.78330726885990   -1.48679759714590
H          -0.24086104004835   -1.96348271391736   -1.11424960234239
H          -1.90800287106598   -1.65314700924632   -0.18817834888589
