    19
        -40.91289193
S           1.44538188576388    1.52017043823645   -0.86243568805935
O           2.13265302863016    2.57965658582020   -1.50525627824838
O           2.29137025348455    0.91982462618204    0.24623801676352
O           0.10688163818117    1.74489618968848   -0.39969197281730
O           1.33808473208919    0.32029181448080   -1.92192896653756
H           2.08553394709973    0.44921961953599   -2.50030032764525
O          -2.55539886990570   -1.25951179776438   -0.06663777797647
H          -2.99411522151323   -1.89161434940754    0.50521827711038
H          -2.28576626113041   -0.51081591964555    0.49511677427615
O          -1.42629413120638    0.72878893681559    1.47241462467460
H          -1.82611613283310    1.43871367679375    1.97739383143877
H          -0.93347900841672    1.15953372986211    0.73787218034238
O          -0.01778855519571   -1.92441895401987   -0.73442260068538
H           0.29284471431274   -1.29635527016699   -1.39483483779072
H          -0.98078334955389   -1.76969202487424   -0.63837231955150
O           0.89492615377675   -0.76096513871607    1.42376630411919
H           0.61337863023113   -1.35008580423359    0.66907253129063
H           1.73162781174064    0.19774504852204    0.79550507736760
H           0.08705872440232   -0.29538141725318    1.70128316194136
