    19
        -40.90691846
S           0.31819942236892    0.52848738242845    1.49509060467444
O           1.54159249615056    0.44827459110625    0.54955975298387
O          -0.84822492376398    0.82245840475848    0.69442074074221
O           0.22868674940115   -0.64412502609266    2.30124637861107
O           0.65203198193908    1.73871501784206    2.38307665937800
H           0.40923047712645    2.55537309577759    1.86608617675950
O          -0.34408575418631   -1.43894693262846   -3.94647305417757
H           0.46437263282567   -1.69246768734299   -4.39416219728064
H          -0.09717542069851   -1.23664148641377   -3.03352640463376
O          -0.11336801694412   -2.75501283779475    0.65316276512606
H           0.06183133517987   -2.13558636784097    1.38483080958490
H          -0.93702570599284   -3.20074899367808    0.86111990830364
O          -0.41819240335013    3.44353718106012    0.75980944374540
H          -1.14080338779231    3.97986978139715    1.09597390690133
H          -0.80537103683362    2.60987946778772    0.43632602224730
O           0.21601015521599   -0.88492027234724   -1.19917200914222
H           1.24390214113704   -0.07121006604449   -0.25541905912900
H           0.11731244206033   -1.72343937769359   -0.69011454828340
H          -0.54892320381261   -0.34349587428875   -0.96183590616382
