    19
        -40.91983406
S          -0.55441619636042   -0.65451519143769   -0.30964342203686
O          -0.85282888008452   -1.93616507271997    0.47665775027837
O          -0.85374365123633    0.49792682831832    0.49784383779116
O           0.81344050520840   -0.68656847021947   -0.77968925328508
O          -1.51753600095681   -0.73816447389595   -1.49236590366718
H          -1.79609242866960    0.22351054011455   -1.72893464940354
O           2.24857758527561   -0.90062024133623    1.48529775305896
H           2.83010487864919   -1.66133240332568    1.42380844454486
H           1.85073187465243   -0.78615061204683    0.60153579284018
O          -1.88524989522804    1.74419860524215   -1.75488265734869
H          -1.92311965260412    1.88414308202891   -0.80069297667987
H          -0.95594449531708    1.94090627654098   -2.00802171824503
O           0.78687995810751    1.77748673330351   -1.90038039324633
H           0.93937206764691    0.85731431709335   -1.62410728397425
H           1.26231636171247    2.32754706343851   -1.27398196752910
O          -0.12077257589069   -1.02633207699361    2.71595652219171
H          -0.63613268321417   -1.73196785896832    1.45867007785019
H           0.83749360048075   -0.98047759311802    2.49923027862580
H          -0.47308037205272   -0.15073945201858    2.51369977827768
