    19
        -40.92136366
S           1.06853818128729    0.20317503657728    0.85863575197251
O           0.29190981670362   -1.01072575337724    0.74366804356343
O           2.43382468238353    0.07872401620336    0.41199718522167
O           0.37156628515394    1.33338932805563    0.21989143109167
O           1.11535191234375    0.56835807768583    2.40331656560155
H           1.94599903970818    1.02315399451096    2.51080006240866
O           1.60785053130186   -1.11166327281716   -1.78978665230744
H           2.08614877714461   -0.66297312730911   -1.05606975958442
H           1.35706109296678   -1.97097114887530   -1.43931234151431
O          -2.08115885159651    1.01497651763622    1.26318383798530
H          -1.20242695448176    1.29729076234087    0.94646415820553
H          -1.95728166397918    0.73182801060086    2.17068563490763
O          -1.98517740765209   -0.93568349473765   -0.55008529721575
H          -2.38524385036727   -0.24440051275520    0.02246917292786
H          -1.22244066711168   -1.24431229135267   -0.00933536380242
O          -0.44361195272650    0.39664844698555   -1.95989719613352
H          -1.22576854546101   -0.20390768925415   -1.48459946603625
H          -0.12852332445927    0.96913780352049   -1.16764461047799
H           0.35338290084666   -0.23204470343381   -2.09438112673023
