    19
        -40.90776157
S          -0.58518019947991   -2.11920872020648   -0.52314317005189
O          -1.31583794078845   -3.32890256109864   -0.61513341122445
O          -0.25280580823568   -1.59849930067771    0.77213683420103
O           0.65540762541562   -2.16197973045181   -1.40895540662073
O          -1.46907586773302   -0.97700902614621   -1.20815293390433
H          -1.82991164598018   -1.35580741176124   -2.00663424529310
O           1.24609631871388    1.80330503936819   -0.85013640624884
H           1.84615707220609    2.50926960929468   -1.09473748779633
H           0.74809539399823    2.12080248794415   -0.06143666130168
O          -1.84804211363924    0.53501548746420    1.26608466092048
H          -1.29401435269038   -0.26469851312686    1.24046738470148
H          -2.28605926108269    0.56502188046126    0.41237134019006
O          -0.04200825413388    2.50431447546100    1.37878189394043
H           0.37516042651969    2.43219056352042    2.23868589306841
H          -0.78472750717470    1.85788604477983    1.38276776020115
O           2.09151096355236   -0.58215592652410   -0.13188794654088
H           1.35855907194785   -1.51643517931502   -0.98012282977200
H           1.84426190996752    0.32221524704991   -0.45862875800460
H           1.54241416861903   -0.74532445603904    0.64767345954707
