    19
        -40.91392439
S          -2.21262254979015   -0.29838190402409    0.11652065710458
O          -3.59649197530589   -0.36440175281982   -0.17625000249870
O          -1.89257021524746    0.94986481014164    0.91712450431003
O          -1.56431874111575   -1.44915796466658    0.67468513124310
O          -1.44385441864593   -0.03503541581375   -1.27027141713061
H          -2.00967907947432    0.55881406060648   -1.75776286123500
O           1.34308976153160   -0.63598871615596   -1.59123260670285
H           1.44521977710096   -1.11929066016420   -0.75622619342968
H           0.39429932598072   -0.61555235062560   -1.76015884763073
O           1.02055436586726   -1.61265827420220    0.98613691889720
H           0.04345457621899   -1.66485003631959    0.86245773650895
H           1.25721689106841   -2.32404895347970    1.58335435028591
O           1.64025869877909    1.87887595464540   -0.74465822645575
H           2.55512726463302    2.16185147146212   -0.77715498895262
H           1.60076714939077    0.99810070148342   -1.18619930836712
O           0.52322623900997    1.01405552055005    1.49687400216032
H          -0.87174445365706    0.99185738749592    1.21155712423953
H           0.83408701699413    0.08875675521193    1.44607123019841
H           0.93398038553447    1.47718935447648    0.72513279743015
