    19
        -40.90863230
S           1.73331833958282    0.05323102216776   -0.61385500131128
O           1.67097380983978    0.21416476687702    0.90943427200876
O           1.25546782695649   -1.23944195469092   -1.00833595225876
O           1.14556861832759    1.17601566724140   -1.26493008437992
O           3.28071646643554    0.08008268560601   -0.85656737658978
H           3.60780795330595   -0.76754434624983   -0.56286910987494
O          -1.33933389542765   -1.49877632251406    1.82109492108392
H          -1.16468911336902   -0.58552124915028    2.06307519293847
H          -1.49063460922810   -1.49676227181586    0.86711663131000
O          -1.41457754036387   -1.33310525604846   -1.04052944191622
H          -1.74659051772083   -2.11466658453208   -1.48603202212964
H          -0.43868140190362   -1.38486736513209   -1.07218330508395
O          -1.53239054668079    1.39470053636905   -0.82175577586600
H          -1.76910796547006    0.46783219757550   -0.99215394208130
H          -0.67019215023281    1.52155060916804   -1.24836126127001
O          -0.51995337398362    1.30405940707511    1.55117004381719
H           0.78245583444793    0.62801366331654    1.21446879037853
H          -0.37184475259298    2.19906602357043    1.86404721278372
H          -1.01831296198262    1.38196878116234    0.67716621841089
