    19
        -40.91058109
S           1.65557222029607   -0.93846519521739   -0.38126208107312
O           1.04302535458051   -1.83825748403056    0.55666327266966
O           0.89397643673221   -0.96228997382350   -1.69988990042615
O           1.87537600337336    0.39909804931881    0.06427863536063
O           3.03688591096419   -1.54745022540374   -0.79881823535806
H           2.88870089987364   -2.48268810018493   -0.91847595740356
O           0.00362393302650    2.27788239687318   -0.19899366298652
H           0.36988211682838    3.11136960374940   -0.49910107343845
H           0.75948455716585    1.68918925041821   -0.00257342876536
O          -1.48501933446376   -1.13957658435418    0.96717967495464
H          -0.55408758430282   -1.44236147643701    0.94789149972493
H          -2.00772901619817   -1.86177516214041    1.32028411198788
O          -1.73899586872732    1.55327732118838    2.00107275146124
H          -1.17028875475160    1.98394812602238    1.35337623316630
H          -1.69692996650586    0.61085551108657    1.80319668776581
O          -1.25474590212621    0.20905972238308   -1.33543865947448
H          -1.59126267824509   -0.25572684699431   -0.54079878998139
H          -0.97165027939921    1.09533499109055   -1.02197486618183
H          -0.05581803826400   -0.46142393226699   -1.61661621197248
