    19
        -40.91955059
S          -0.48511824594298   -0.84016601085407   -0.64898365249967
O          -1.54757022339529   -0.15581911456048    0.23138644012814
O           0.22603981446628    0.18041978418300   -1.38385648350611
O           0.32703012213909   -1.72012139193758    0.12358114737140
O          -1.36038825469441   -1.64961066503334   -1.62663064636487
H          -1.84129792532246   -0.95327502787109   -2.14146551858304
O           1.80089463965724   -0.37611946829451    1.98753600181390
H           2.22836555524273    0.23521076821137    1.35499367262805
H           1.46699487582451   -1.10312282807571    1.43824524627985
O          -2.16111538881869    0.65354217145424   -2.51949787500396
H          -2.67215248551971    1.05240177513886   -1.80971022191877
H          -1.23000423387331    0.86451865552625   -2.34177205779236
O           2.51977999323530    1.03660402063455   -0.20380228368483
H           1.70102537292423    0.81836916386436   -0.68343636518604
H           3.24424199350702    0.74622228311358   -0.76083085581886
O          -0.54648197052350    0.60562197766362    2.39811208687213
H          -1.15673616624878    0.19147828347174    1.13431837686370
H          -0.92920084934361    0.10808902259792    3.12477667233705
H           0.41569336631677    0.30575661017457    2.32703630602222
