    19
        -40.91904984
S           0.60142858928803   -0.40187001025300   -0.91494294783163
O          -0.93307949642038   -0.32689685784423   -0.79970601585025
O           1.10048216345501    0.95012081446886   -0.94278863206067
O           1.12825515226726   -1.25519855011475    0.09905988983225
O           0.82858260220135   -1.05100485456829   -2.30275828113865
H           0.48940430948679   -0.38666895131713   -2.95276809285471
O           1.43836233263493    1.04100743974566    1.75982091766450
H           1.36686806515339    1.23297801402245    0.81116916153451
H           1.94783477620325    0.22730934030609    1.80965567182187
O          -0.94663475853279    0.33556340963201    2.77751479316302
H          -0.05657924097829    0.64064377744253    2.49078494973250
H          -1.52142811354341    1.10131872914661    2.73903220782792
O          -0.21192792436287    1.12282534542999   -3.29222839096744
H          -1.13284867927610    1.11728756911229   -3.01716410617899
H           0.29274655594925    1.50378907135557   -2.55577724962402
O          -1.35739270622116   -1.74112172353963    1.20501330556847
H          -0.47453279644326   -2.13263695956845    1.18907136418292
H          -1.31949512707563   -1.03668385826642    1.90204011885819
H          -1.24004569379866   -0.94076174522174   -0.00502867366582
