    19
        -40.91892656
S          -0.95154249477693    0.65451970970931   -0.85139622944011
O          -0.26811819591029   -0.53239731068330   -1.30219002784566
O          -2.25629677794759    0.41777651609783   -0.27195198498624
O          -0.09689301922515    1.44330045832599    0.05595151528803
O          -1.16778682311352    1.56869796432137   -2.12357336703304
H          -1.83504545909857    2.19436821944216   -1.85744810704139
O           2.17438697450974    0.61199238419434   -1.40129656240607
H           1.96397269217393    1.40805988254825   -0.90448758231598
H           1.31284134033549    0.26579939064042   -1.68879708451738
O          -1.72053492357666   -1.15352815784162    1.72644365323490
H          -2.36395656202017   -0.97941273141381    2.41690281863287
H          -2.01876596980366   -0.64119639928433    0.93171463877262
O           1.85758399401477   -1.56818958193994    0.10812552683279
H           1.08903771326952   -1.76647566314188   -0.44979728700184
H           2.32474459265817   -0.86342098054458   -0.39582853792859
O           0.62640198015063   -0.18084499249678    1.78569952122980
H           1.22230835032150   -0.82652592969009    1.18145475166497
H           0.37940719361957    0.60254215901330    1.12844076132065
H          -0.27174460558064   -0.65506492725973    1.91203357353946
