    19
        -40.90776152
S          -0.60775930534906   -2.05681401990473   -0.70952365582195
O           0.58673937639264   -2.59686489243650    0.06955025709365
O          -1.27944276633784   -3.09857997404676   -1.39455062229922
O          -1.36619938061454   -1.15333473684714    0.10763822562161
O           0.08109077548889   -1.12892909498840   -1.81394483438478
H           0.46261041909105   -1.71694293864314   -2.46206750847893
O           1.88654861316031    1.17480268988321    0.76270206995986
H           2.59551804783986    1.65033312951897    1.19803680648347
H           1.15882276229933    1.82416893332195    0.62349029329312
O          -1.54944467994916    1.21696358543939   -1.19184996322758
H          -0.98137527530174    0.99755755778864   -1.93402495472800
H          -1.63170720731991    0.39249484469613   -0.68131469399277
O          -0.20236952398345    2.81105680909698    0.48038319619418
H          -0.73576261953676    2.32514927622763   -0.18970932423852
H          -0.79662054940914    2.99069187331826    1.21068732584636
O           0.67562749846434   -0.88186790898812    1.86972915331813
H           1.20887632983073   -0.13294538944012    1.49496681971607
H          -0.25025751822971   -0.67029248576825    1.68591614151398
H           0.74510503352752   -1.94664725821833    0.87388523812361
