    19
        -40.91335382
S           1.60705967669531    0.83296700627390    0.57663309995652
O           0.83452764136431    1.65497455618256   -0.29142437331816
O           0.98524658249019    0.40068102660438    1.79176315748917
O           2.17685962722256   -0.38224095278932   -0.17869992451105
O           2.92557425075290    1.59262177039866    0.94638702042781
H           3.30969044555906    1.11568822517793    1.67871811339255
O          -1.03974770690031    0.47162314610173   -1.88279550517843
H          -1.81934557046202    0.52814845287113   -1.28071841404206
H          -0.40887368714438    1.11902170850067   -1.53035738408545
O          -2.76203682453149    0.57402729506296    0.14705056729384
H          -2.33023398940955   -0.13964138941371    0.66763326091237
H          -2.65655483550848    1.37742461547936    0.65908011725218
O          -1.18143821080947   -1.21951965442953    1.37514359455843
H          -0.81525316896671   -1.71293240381426    0.63242264863261
H          -0.45838129539935   -0.66371403151788    1.70804632767918
O           0.18782414588513   -1.61721587860426   -1.11149916676458
H          -0.36005579329192   -0.83018064033682   -1.47818415076385
H           0.40507154424469   -2.16820534969827   -1.86662205240918
H           1.40006718815624   -0.93352749213284   -0.56257693649875
