    19
        -40.92003355
S          -0.72606045861159    0.47041531064019   -0.15919604251000
O           0.56361355494842    0.55852572621989   -0.80195654697595
O          -1.80142814066671    0.16841432737719   -1.20536657010777
O          -0.76089179686982   -0.50427936173594    0.90176779822027
O          -1.16590295403227    1.84224543105537    0.35643770866240
H          -0.51567857019871    2.19147155108250    1.06282135343697
O           1.87548386071887    0.30903997499791    1.53650973035079
H           1.28573396818628   -0.36335057668292    1.89254105924211
H           1.67242516755675    0.34059025276016    0.58530540840216
O           0.63318517987808    2.58105152528937    1.99579598400618
H           1.19941888454820    1.76540393998084    1.97744859252854
H           1.15758630990568    3.28818462939784    1.61201570184827
O          -0.34439822560876   -2.77299771937901   -0.46142193051477
H          -1.03972229942690   -3.40352245114695   -0.26286074495855
H          -0.46938184048347   -2.02219273404634    0.15067440848540
O          -0.35693603274288   -1.28631089827542   -2.67905124656453
H          -0.28472743319588   -2.01722096268331   -2.02459600881900
H          -1.35111313132285   -0.40335818135844   -1.92971354154944
H           0.42879396740086   -0.74210979349645   -2.54715511317824
