    19
        -40.91520689
S          -0.73425542268286    0.21638983595966    0.98466185004889
O          -1.64236995795119   -0.42344820465103   -0.05581354024441
O          -0.43444468412786   -0.72032492653185    2.01774297953963
O           0.41947491069055    0.80088826392347    0.32816545654616
O          -1.60484837252066    1.37891515684137    1.53928238877220
H          -1.00589196439896    2.12832821297696    1.78149542347241
O           0.52402525774633   -2.22448238375832   -2.12774220152109
H           0.85414426901882   -2.23073139963116   -1.20385310751029
H          -0.11935361421937   -2.93305180461880   -2.18394297630591
O           1.29540932090407   -2.06846782233666    0.45517125566869
H           0.64766511214201   -1.75730072853848    1.11069744177415
H           2.05828753249639   -1.49438741121427    0.55132110942050
O           0.37008104342037    3.07791465449932    1.70200914155574
H           0.31950529175378    3.85604057988762    1.14114965472053
H           0.75239729425489    2.36058617217989    1.16570828001885
O          -0.48725195669585    0.20128917747012   -2.17459595892043
H          -0.09405737806589   -0.69216815203238   -2.35701289108848
H          -1.30318954446278   -0.15199340396559   -1.00814275734029
H           0.18467286303795    0.67600418320783   -1.66630157888832
