    19
        -40.91103773
S          -0.39936071940786   -0.63179896904360    1.33622105030523
O          -1.09377895196098   -1.84383675123018    0.95043777152678
O           0.98354266988558   -0.64658090070479    0.81334261869111
O          -1.08835117410516    0.57799960820807    0.96568321288091
O          -0.25825829610991   -0.63743202205117    2.89951899004024
H           0.19715108618980   -1.45186448279597    3.09178944293785
O           2.03110494806040    1.95945087514004    0.97054471874504
H           1.40249430448515    2.37595449773347    0.37597196768892
H           1.75625280278488    1.03853329655959    1.06137903922709
O          -1.25880370966546   -1.66363819689884   -1.61681395739357
H          -1.23569333828688   -2.55566716056477   -1.97087822047321
H          -1.32133511300694   -1.75969040879826   -0.62680262790233
O          -0.28849392795892    2.00635493476307   -1.02710253409508
H          -1.05029660646945    2.33801784391283   -1.50646120333398
H          -0.63907403228677    1.58886316641056   -0.19534857930813
O           0.80305739550411   -0.20810172279687   -1.60827499848816
H           0.44316229256403    0.75383090065603   -1.54549907345872
H           1.03471398889404   -0.42639656562847   -0.59271272627561
H          -0.01803362907929   -0.81399795288156   -1.77499488130869
