    19
        -40.92136318
S          -1.18520756310628   -0.64970863934968   -0.31286429598653
O          -2.20386450513476   -0.01804475565878   -1.11420815668107
O           0.05133155109744   -0.89769301063083   -1.07555932401974
O          -0.89593366432949    0.03207150043614    0.92838734068637
O          -1.72363449591422   -2.09152749795512    0.07676755629088
H          -2.28483020840019   -2.33720312504331   -0.65329392726606
O           1.58331889485389    0.69564340089064    1.45902349460778
H           0.61272074596015    0.55178103637020    1.53913312521713
H           1.93049736624140   -0.22205715491115    1.40492705984018
O           1.60821129157829   -1.90278605833062    0.86705586257992
H           1.04227041770912   -2.44834405561682    1.41591164415075
H           1.08500418864501   -1.68464148672197    0.07277169512536
O          -1.02666454233676    2.31597536647719   -0.78671080493190
H          -1.24994865586704    2.49747073903968    0.13049636367530
H          -1.57425403562550    1.53732752432725   -1.03687315434996
O           1.29797949477732    1.27468780072670   -0.93344727110280
H           1.56501821196012    1.12963828700433    0.11761356245835
H           0.90764809065895    0.35332644064912   -1.16538921891275
H           0.46033743722518    1.86408370830238   -0.93374155138461
