    19
        -40.91892624
S           0.29767401308893   -0.47126942485013    1.32153389691675
O          -0.81608077556538   -1.30267816208749    1.72423890727810
O           0.99439674106264   -1.03892064339340    0.15177879877196
O          -0.03326382938490    0.91504778388208    1.10360537696837
O           1.35492016944989   -0.50832295087047    2.49683921551718
H           1.36582324419945   -1.41773553279658    2.78072053689563
O          -0.19346611806189    1.95014070286415   -1.43942068578429
H           0.78104689862784    1.99619512113321   -1.31029348592816
H          -0.53798118079013    1.97826465122258   -0.53276123423577
O           2.18806553523378    1.47391261880003   -0.32632416282500
H           2.46608748389991    0.56757163780445   -0.48798549114353
H           1.57452722699446    1.41309435111871    0.42496312135058
O          -2.46927493072722   -1.05513678737972   -0.26412054291291
H          -2.95956663655127   -1.87648101608346   -0.34196613449086
H          -1.94181896295875   -1.12325728354801    0.57270244746918
O          -0.49121058572087   -0.51171159260901   -1.76357984457322
H          -0.40940945444997    0.55151752804188   -1.76031051999793
H           0.21169829988801   -0.80827228187619   -1.03929735508844
H          -1.38216714825382   -0.73195871928540   -1.31032283414467
