    19
        -40.90789776
S           1.87468441780062   -0.16893188470208    0.38587663344230
O           1.39303843093440    0.27340605622151    1.66210368152807
O           1.46167335101440   -1.62939594430772    0.15445665668271
O           1.55942067412213    0.65495670541030   -0.73173756449870
O           3.43077571556173   -0.30919606331072    0.47143770427319
H           3.62702066225085   -0.69275890843029    1.32369345889192
O          -0.76971975115716    2.00345249727101   -0.83760985318035
H          -0.69982424998245    2.82562237711428   -1.32567559479011
H           0.10278021423971    1.57001986500761   -0.89020938154493
O          -1.29692890930541    0.55723085750935    1.43281828533948
H          -1.36156754978119    1.22957657724452    0.73496867922637
H          -0.37851959870697    0.59539928888167    1.74897953795975
O          -2.07897291467645   -0.16492586385186   -2.19738574155685
H          -1.77008953457310   -0.86952269145340   -1.62054901697280
H          -1.75129322490366    0.65456744866003   -1.80518848182463
O          -1.05967675409723   -1.65001035516732    0.13323554487920
H           0.43972548601412   -1.69339392692698    0.09113643690603
H          -1.44934785806279   -2.37958811841903    0.62031291898438
H          -1.27317859668952   -0.80650794676594    0.64933609623796
