    19
        -40.91865349
S          -0.05629550294760   -0.09718283971562    0.99667770206695
O           0.95096615949043   -0.88961316222046    0.16066610937533
O           0.27991209974192    1.30414680162626    0.90024609604240
O          -1.38894022331379   -0.45215958659400    0.62446315824369
O           0.19640548094554   -0.55532192412541    2.45517905039700
H           0.99738658338094   -0.06659890318841    2.77643499525519
O           2.09295719916048    1.18399958541507    2.84183659493123
H           1.94418712463686    1.83809906550773    3.52942994712680
H           1.66749094982607    1.52152222391502    2.03298148046223
O          -1.21466178617404    1.53001428424746   -1.37467965054889
H          -0.58572894165411    1.66709474949753   -0.64986804608537
H          -1.99270976510016    1.15028867231833   -0.95574827810209
O          -0.48478425599547   -0.44914076612844   -3.05559710813888
H           0.38484365095744   -0.23702269906741   -3.39839272927865
H          -0.77598928990320    0.33191679340693   -2.53614825284596
O          -0.54922379811827   -2.33466213370395   -1.20967558228075
H          -0.56628041881946   -1.76721509308732   -2.02289997094904
H           0.43186549070788   -1.59310963126615   -0.41426158193183
H          -1.33140073589054   -2.08505543700708   -0.70064395442611
