    19
        -40.91413656
S           0.22046986238368    0.12314030594598   -1.07196178870815
O           1.55269941726819    0.51435156431797   -0.68042954802547
O          -0.29585030921311   -0.90062755081631   -0.02803466208614
O          -0.72558916843349    1.17536027032685   -1.22493418304269
O           0.28238764928998   -0.71142804774571   -2.36683817242326
H           1.13591387506767   -1.22040413774879   -2.33666071015801
O          -2.79611071227814   -0.46530618980848    1.31105891180358
H          -2.67163155064700   -0.99592080954246    2.10071484523838
H          -2.16491159091881   -0.78992705534368    0.65658152594033
O          -1.44468900750798    1.93038017412919    1.31863016416361
H          -2.17509424849782    1.29462335133269    1.42305946253403
H          -1.28058280951261    1.95976277320815    0.36265649438509
O           2.70044225283603   -1.52223605152451   -1.90538421718376
H           2.60965517322046   -0.76980310713769   -1.28996002438687
H           3.36495139870879   -1.27616050636393   -2.55376476713624
O           0.52510337621141    0.36479496407412    1.95926190844904
H          -0.19069907075566    1.06587356461651    1.89660533990026
H           0.04414516337524   -0.51832339352586    0.88312149071401
H           1.30939029935940    0.74184987173998    1.54627793003064
