    19
        -40.92343666
S           0.07556003506384    1.63223247816832    0.41923335191614
O           0.79549382167578    1.68644835860056   -0.83520828562747
O          -1.15901571093105    0.86964768850753    0.32167991690641
O           0.92145894497051    1.15483301529755    1.51426092381246
O          -0.34300824142604    3.10390428153191    0.79460459329938
H           0.49577100053502    3.54908841244789    0.86387837097756
O          -1.26855706947846   -0.87802895148897   -1.67332316029328
H          -1.63169343158424   -0.53238127906319   -2.48985510126422
H          -1.31193001798757   -0.14436105064435   -1.02084690935143
O          -1.22383471516928   -1.66669123887110    1.14960214576304
H          -1.51003994992045   -2.04971462847008    0.31301005253581
H          -1.39044201339429   -0.70534680511058    1.05956155140569
O           1.39488988540468   -0.81201916253879   -1.32794115263550
H           1.35888945997517    0.17266431753941   -1.27258557196443
H           0.49894255027084   -1.06012239998139   -1.63810548196224
O           1.29013660299457   -1.26931898384749    1.11948303763364
H           1.23905727042710   -0.26564299625206    1.40883975565314
H           0.32137459893402   -1.59450096051157    1.22885453980425
H           1.44694697966058   -1.19069008529581    0.06485741339253
