    19
        -40.90719722
S          -0.99033696301820   -1.00022185953100    1.10787841878132
O          -2.07136018474997   -0.13572029498579    0.73813711009196
O          -0.85153709035355   -2.23540894710175    0.41162087501360
O           0.31933656955949   -0.21394341911371    1.08507473134185
O          -1.13795252902362   -1.32724564763298    2.64001864333858
H          -1.42778934840568   -0.52802059358739    3.07617718518923
O           1.27019327970366   -2.49534399914789   -1.28793801299281
H           1.01280090191731   -3.11446437218507   -1.97390104022812
H           0.56133597166426   -2.53152230533866   -0.61885903086073
O           1.55853833773717    2.37461376511428   -0.52364916866762
H           0.61341741142240    2.50070480268542   -0.30234532675140
H           2.00158724239147    2.23327850560304    0.31492951052169
O          -1.13238110745745    2.32860420317075    0.03451253076326
H          -1.60281270151027    2.55295339587593   -0.77103323271577
H          -1.49024661280448    1.46631942666135    0.31267262886551
O           0.60500682461485    0.06837301645944   -1.35641309708055
H           1.09766102820432   -0.75590951616339   -1.55473935232165
H           0.46931310924645   -0.04044303343660    0.04727688948251
H           1.19522584086122    0.85339689264560   -1.37942026177989
