    19
        -40.91836587
S          -0.06292356852634    1.33672135741264   -1.44926047276335
O           0.71862449685090    1.74784828466167   -0.30580202314830
O           0.54552099976371    0.25962737229979   -2.20844008388580
O          -1.44990048881292    1.00741808135024   -1.08484557256248
O          -0.15639207534773    2.58134602870022   -2.41407470571194
H          -0.54820800785262    2.20495309887547   -3.19623813231988
O           1.54718687635412   -0.01476164454901    1.37158253049379
H           1.24788139378178    0.69738366774920    0.73975138733024
H           2.34024520777127    0.32944262705449    1.78591169980529
O           0.68968789127991   -1.76085724079972   -0.58508652062198
H           1.22875357246409   -1.36698040228650    0.12097037113774
H           0.73672660720718   -1.11443217765493   -1.33422860719193
O          -0.80518502581331   -0.57166310078780    2.52645166597789
H           0.09068273713200   -0.28980620366338    2.23628296099880
H          -0.68873574685729   -1.31955139313146    3.11542643215203
O          -1.61849299308260   -1.11909380296559    0.14255631443188
H          -1.64726137629261   -0.19115301166764   -0.39549118245635
H          -0.70350582879974   -1.53778930838817   -0.18056156316686
H          -1.46470465154913   -0.87865224229883    1.11509552142076
