    19
        -40.92007400
S          -1.16343334020176   -0.64318034993499   -0.42657681633143
O           0.02808677839835   -1.34851195153159    0.08730594188905
O          -2.19879126173621   -0.55965381615423    0.57893929409372
O          -0.79998608506102    0.60986090521885   -1.03402239526071
O          -1.72174648111282   -1.57135364824525   -1.58430284124748
H          -2.25867723414812   -2.20903229483755   -1.12339440844243
O           1.60965864713163    1.56826680460334   -0.61683702141396
H           0.65686398174936    1.53641640652108   -0.85795823603541
H           1.98938069087490    0.84270960065027   -1.16484404324264
O           1.73146880869822   -0.75161333085614   -1.91175972077381
H           1.18045261902036   -0.67648798332503   -2.69340471536401
H           1.16125679925645   -1.13648457362100   -1.22025759944866
O          -1.09544717085169    1.14101027754063    2.21745286768750
H          -1.44991644938394    0.97698513928973    3.09414930052142
H          -1.61376377547672    0.57245782668181    1.59538706568057
O           1.21842886778763    0.35250142255787    1.49877500692405
H           0.83189984327926   -0.46833758770101    1.01501403949122
H           1.50675162731209    0.98379803539078    0.64013637317585
H           0.38751311451945    0.78064910804128    1.90619790837695
