    19
        -40.91205831
S          -1.47412363428870    0.81324603540549   -0.77179261803941
O          -1.69312761248573    0.59916909204105   -2.16291425030350
O          -1.33658010029370   -0.34795277399265    0.05937156575346
O          -0.30356608079535    1.76339187661693   -0.58394710309588
O          -2.70715319746782    1.62945271904054   -0.21055909617196
H          -3.04133358159450    2.16207401173107   -0.92941601640428
O           2.14439470067672   -0.81601527306653    0.67454583777892
H           1.54614857795711   -1.43391901842766    1.14197111010783
H           1.88979564452430   -0.88149698220225   -0.26024442874524
O           0.69019628925626   -0.94942030158418   -1.67836746417882
H          -0.09783005558196   -0.95723963458755   -1.12033836616158
H           0.42140158265995   -0.51529099891185   -2.49091041730759
O           0.01058384962849   -2.18878461183203    1.61355379923535
H          -0.57522293526744   -1.50563381727395    1.25296178234806
H          -0.24426514560050   -3.01147927265104    1.19156258283580
O           1.12414399635314    1.41793284322427    1.40596449618782
H           1.82117909232151    2.07793629944167    1.37405539353853
H           0.25979567218552    1.61804429066108    0.31046915363672
H           1.56556292790794    0.52598551636172    1.18403401901048
