    19
        -40.91955068
S           0.16772479699284   -0.68529386804117    0.93038704088760
O          -0.15025820410428    0.48317033427884    1.68160260064269
O          -0.85150008062211   -1.12990098850949    0.00794324083053
O           1.48248035837955   -0.49769697427810    0.15061084147577
O           0.52838005637119   -1.84389978005014    1.88164907095847
H           0.68215911053530   -2.60843229189170    1.27112024942419
O          -0.65715840922146    2.62623946944950    0.06799820664300
H          -0.58300223484476    2.08370161013019    0.86914584869079
H          -1.35467432281544    2.19130612440359   -0.46194453976523
O          -2.36856567964461    0.85815434307926   -1.05477961340639
H          -1.85762841206125    0.08583006630483   -0.75366345005949
H          -3.25648686943094    0.74495273313085   -0.71067456268854
O           0.71292976913123   -3.29606295602952   -0.26352099013973
H           1.47430501027576   -2.96360126384753   -0.74702856711154
H          -0.03922746636554   -2.73478550513095   -0.51310890115505
O           1.56859701134422    1.77036187442394   -0.90941748030002
H           0.69675795975448    2.19347776180984   -0.62345135150865
H           2.26518557623205    2.29072484977408   -0.50196477860018
H           1.53998203016494    0.43175445079022   -0.32090287487150
