    19
        -40.91836592
S           1.90945108988116    0.07392397026939    0.48966941325409
O           1.17992225408694    0.96968235740874    1.40083096777516
O           1.67724676464981   -1.31744652249641    0.83146501672734
O           1.64816467029307    0.37710764653130   -0.89856516109143
O           3.44040152765636    0.35836765817653    0.74245763406690
H           3.57257684153460    0.00480214511195    1.61680898543058
O          -0.58823986702235   -0.32144925681215   -1.95578336427020
H           0.29306068961866   -0.03952277870118   -1.58183983012815
H          -0.44290902785814   -0.42768011196818   -2.89741665434958
O          -2.16027953941242    1.46800222737799   -0.73098545708402
H          -3.07517112915466    1.26348432656309   -0.93317512206280
H          -1.60229517939124    0.90071439366995   -1.30830468167709
O          -0.84485259874219   -1.74770153830380    0.39339843040390
H           0.12284732898684   -1.78615422597932    0.60168644524656
H          -0.89012704896619   -1.51834598975521   -0.54966997814879
O          -1.23184442485722    0.48336042799925    1.46245031338145
H          -0.19641487520716    0.76066554914273    1.51233841829110
H          -1.63008919447628    1.01009625766677    0.69341457171234
H          -1.18144827171039   -0.51190654538523    1.11122006252227
