    19
        -40.90793089
S           0.89848557794890    0.75842686414052    0.52398929414435
O           1.51466890511760    0.04135751508227   -0.68202889302276
O           0.20632850753290    1.93192561296444    0.08540087603506
O           0.16127017456394   -0.14900955314945    1.34292042639635
O           2.17176517903847    1.20148174215529    1.31257390663911
H           2.53156710651484    1.97539463644572    0.88446361512893
O           2.30955029799390   -1.95107756479093    1.28383756689754
H           1.52183002102033   -1.47100143429183    1.55976761682176
H           2.51754581231354   -1.63232683448147    0.40329974009492
O          -2.55053002975479   -0.43884345483248    1.13803751929800
H          -2.72633841600081   -1.38163803688583    1.11742228419533
H          -1.61821812830592   -0.34045713515874    1.39210345392380
O          -2.05314261850373    0.96497904733649   -1.10344726206459
H          -1.40599760530838    1.57383540495578   -0.71301430971007
H          -2.46653133962664    0.51006359055258   -0.34019765530136
O          -0.38593417307389   -0.69903173110493   -2.10221923824165
H          -0.24333775302967   -0.47958821534438   -3.02633556550619
H           0.74677488068473   -0.32395048077050   -1.30558226744824
H          -1.12975639912734   -0.09053998282702   -1.77099112827213
