    19
        -40.92217274
S          -0.68730594552724    1.15643688649244   -0.31148331334138
O           0.62969587554835    0.76953662735628   -0.78568805218116
O          -1.68401058199879    1.34883576434426   -1.32538179492563
O          -1.13237002040795    0.27599906952394    0.77633794870822
O          -0.45625404241670    2.57870070387259    0.38379823307308
H          -1.25427810004459    3.06713422547310    0.20464879264722
O          -1.67533407227831   -1.33745975602897   -1.48632820570132
H          -2.27814140840767   -1.53309315506377   -0.76508110276218
H          -1.73446560016239   -0.37492073261665   -1.61969355896689
O           0.89266034381227   -1.89167053956584   -0.99559636382183
H          -0.04283671963102   -1.95625252698306   -1.28925384517373
H           1.13259779752003   -0.97764920986808   -1.22936560075314
O           2.10709417289673    0.78159514474825    1.37051342315929
H           1.70270876838612    0.92446732877621    0.48389813313849
H           1.84019571801914    1.53016725505158    1.90755302356051
O           0.64381477870102   -1.31911627262655    1.42285629853700
H          -0.19339089209978   -0.70011026376439    1.24532349521623
H           0.81721169098952   -1.71505653288695    0.44503697297811
H           1.37240823709990   -0.62754402623826    1.56790551659347
