    19
        -40.92115640
S           0.33575070093578    0.99931468201910   -0.11624446612147
O          -1.08433954194474    0.60200663759934   -0.28370920396526
O           0.66512412623628    1.04371326357071    1.30154627220587
O           1.20707118194506    0.12126351789808   -0.86428761366439
O           0.46199061642121    2.43037139955957   -0.70669213860058
H          -0.13033284820758    2.96425307252300   -0.13141500464275
O          -1.20801859907103    2.98971825329211    1.23831173252872
H          -0.58306150557951    2.41263590478698    1.70507822728304
H          -1.90280773131593    2.40771728891357    0.91334172798111
O           0.84705579280849   -1.56221045224831    1.51098804083799
H           1.69492453398661   -1.71876298257655    1.08732478025938
H           0.79683602348866   -0.58242074870892    1.61844723196096
O           0.36440289772200   -1.94085558810764   -2.22632453264835
H           0.74270364927146   -1.08930451742910   -1.89977732606356
H           1.10446504460307   -2.52995699171226   -2.38475418334593
O          -1.09034757304528   -1.84138881708792   -0.13236680414961
H          -0.36975170994432   -1.89189649776512    0.59444836731407
H          -1.22805941524248   -0.75406099346447   -0.21281284370843
H          -0.62360564311372   -2.06013644144162   -1.01110227348361
