    19
        -40.92025496
S          -0.51387758044840    0.16399920382847   -0.73341276193153
O           0.79934737588922    0.67381325623510   -0.37032598616398
O          -0.50537003549283   -1.29524597446659   -0.81599597637313
O          -1.53040345496397    0.65439362849133    0.20259454531651
O          -0.91233517220970    0.72684525021244   -2.12687980375174
H          -0.52378466447324    0.10719564706583   -2.78555142369556
O           1.11201630690528    2.08872127231707    1.77918641368781
H           1.12732484486953    1.62466377382167    0.90068298047531
H           0.80980653774937    2.98214109112928    1.60478217979379
O           0.02835731883091   -1.37870931389299   -3.38357433411207
H          -0.04917488749658   -1.64530154978813   -2.44536789447533
H          -0.61919586246149   -1.89438471762077   -3.86999605466212
O           0.72987913996109   -1.54048293099903    1.48655015527515
H           1.58127555948233   -1.16105735443413    1.24763936357925
H           0.24363660905862   -1.63072193446049    0.63388088647887
O          -0.61619121477012    0.37349893026625    2.46712131258344
H          -1.15807529946574    0.50723727717169    1.54780686814433
H          -0.08403810491605   -0.48594827082727    2.25855747965786
H           0.08080260384401    1.12934271580135    2.40230204026245
