    19
        -40.90781933
S          -0.63576651494678    1.53898094713434   -1.68602519454000
O          -1.41555205824921    0.24443273366570   -1.93328586630415
O          -1.25456256426348    2.30435180420053   -0.64370181580146
O           0.76170568137160    1.28869121293245   -1.53130284522610
O          -0.85182030460111    2.29084255569765   -3.04929586404092
H          -1.75620119655733    2.59993080171640   -3.06539864939590
O           1.72184524903057   -1.09090324540293    2.34690232642668
H           1.31246254734439   -1.15769948817975    3.21152975409000
H           1.44887857506500   -0.23543710586780    1.98186275367434
O           0.46484183986822    1.07515946389942    1.11428342227475
H           0.89164788365280    1.12638029366671    0.23926329073939
H          -0.18046614171746    1.79264666295742    1.09553633466493
O           0.88564209332539   -2.70229531133246    0.30814165017867
H           0.85999614706534   -3.61514378784899    0.59815789882163
H           1.34981179782301   -2.19632948532269    1.00435696774803
O          -1.12608882980539   -0.96157146865659    0.23114542556063
H          -0.63762576334203   -0.26746500704483    0.71826523483353
H          -1.36199970796883   -0.33869701178087   -1.06390967241088
H          -0.47674874310506   -1.69587457443597    0.12347484871468
