    19
        -40.90774471
S           1.48516612765868   -0.25530704819616   -1.79745940713632
O           1.23175237727843    1.22318049598794   -2.06740396599665
O           2.29899468918700   -0.82422970477892   -2.80757811806817
O           1.82742878613190   -0.45841157187059   -0.42024793719096
O           0.02280389828344   -0.89284101783708   -1.95619778197090
H          -0.14761321799962   -0.93447786382425   -2.89461603239289
O          -1.30789272108773   -0.59442326733736    2.47116486180521
H          -0.76852490716506   -1.18517201073529    1.89605415932855
H          -1.97231171187066   -1.15298791158081    2.87697155318092
O          -1.77759401822876    1.43160795376131    0.80711441104410
H          -2.18935905191005    2.14037731060986    1.30452396889121
H          -1.66084003427378    0.68255231498889    1.43679539029438
O          -0.01197173178549   -2.09747737011085    0.68065860922180
H           0.78455639895988   -1.60246082322102    0.42135194378472
H          -0.55427169093483   -2.11760987321114   -0.11230594948245
O           0.74575932533669    1.96433018885515    0.25497795010484
H           1.00530671360026    1.65888255082227   -1.14205605884420
H          -0.22295897970509    1.81081323807428    0.42142963306598
H           1.21156974851969    1.20365441962683    0.62682278030203
