    19
        -40.92343643
S          -1.39472861929380    0.74204398479012    0.59105027938700
O          -1.64050314445807    0.89152447805714   -0.82747178489478
O          -1.72632384516248   -0.60286968738398    1.06376769324172
O          -0.04337638182605    1.12618530213647    0.96715707682179
O          -2.36121548021813    1.72838311571660    1.34936317612737
H          -3.22253414203403    1.43109342043104    1.07319816807488
O           1.82447548036154   -0.74921662242830    1.30709581351242
H           2.44646085325562   -0.40660541292975    0.65576882641634
H           1.18996911839140   -0.01873756512179    1.46191455451829
O           1.74692117032049    1.06786118921867   -0.99213478979697
H           1.08259637698379    1.23636791450773   -0.28781832409807
H           1.84177784249433    1.89074402147556   -1.47367878669689
O           0.03966623058040   -0.77732940008460   -1.93935223928584
H           0.82558469017707   -0.20305718626799   -1.82493247914277
H          -0.71737189234635   -0.18491470815145   -1.71601028751706
O           0.01610427636977   -2.12314667128662    0.15784257170465
H          -0.78908993648345   -1.61798516981966    0.59404548330132
H           0.05191023035971   -1.68702831991480   -0.81761490633182
H           0.82967720227937   -1.74331268291723    0.65780997459724
