    19
        -40.91983422
S           0.08207856314850   -0.85023936313697   -0.31936423670983
O          -1.07868583278527   -0.00233219072724   -0.26074363508124
O           0.24513765431633   -1.43029239728861   -1.72321965245471
O           1.30027464394687   -0.18417919538900    0.08756931850899
O          -0.13373154218217   -2.09353942048670    0.55074487822241
H          -0.70471973035289   -1.79379235100011    1.34933302958864
O          -1.44767107316445   -0.90837173087367    2.35215349789167
H          -1.88517151013780   -0.33841993681391    1.70767225084027
H          -0.69259581616076   -0.38188317547284    2.69900509336480
O           1.07700816189067    1.90379412669437   -1.62053809985490
H           1.34547733247234    1.19418274518885   -1.01162386726798
H           0.78376237621036    2.63304906740355   -1.06976808417365
O           0.86334402662066    0.39301282555377    2.67801042321395
H           1.12882045717902    0.27772458652029    1.74598471577510
H           1.57611930170648    0.03181919059081    3.20913347956097
O          -0.77261379563463    0.51473329607397   -2.96751465919390
H          -0.06940299559380    1.15417548378120   -2.71700372085594
H          -0.15106052034749   -0.74838343181913   -2.38360683768351
H          -1.46636969118572    0.62894185109987   -2.30622391374229
