    19
        -40.91814260
S           0.73585848123083    1.29165422246702   -0.95051099496672
O           0.49609469666917   -0.07852358370064   -1.39170360109385
O          -0.22248261211803    2.25607843948909   -1.40707813873939
O           0.94597375800370    1.33147829667841    0.50267947329902
O           2.13407314707673    1.69492591521524   -1.59222271005274
H           2.04847811428688    2.63465280603798   -1.72154959937920
O          -2.04141006781398   -0.67642412824771    1.62305057329187
H          -2.14461745439543   -0.20310306947362    0.75432736539695
H          -2.44725712696355   -1.53816544487738    1.50871698861699
O          -2.06111941237861    0.37270177361275   -0.77843611769124
H          -1.88357512224313    1.31423842604115   -0.91080690661096
H          -1.28600717189589   -0.04844789157912   -1.18529118003880
O           1.20578485799193   -2.15704105851270   -0.01721065864150
H           0.94383880254399   -1.44545054620487   -0.65783279605964
H           2.13995450171984   -2.31798213925692   -0.16206750487519
O           0.47968033255350   -0.64361692510479    1.89154739026220
H           0.79694557876713   -1.37169491716858    1.24576912163702
H           0.71321271992280    0.25873001718808    1.35966861139919
H          -0.55342602406799   -0.67401019254956    1.88895069517112
