    19
        -40.91892642
S           1.09588780023200   -0.29825960295800   -0.87444642546480
O           0.53216942374021   -0.51783722180012   -2.18898237405482
O           0.86297660880697    1.08378052535759   -0.41489936914981
O           0.68230435108158   -1.25121558426471    0.12556261099794
O           2.66519670184752   -0.43509205188001   -1.01425614136645
H           2.86879400661659   -0.01487595126928   -1.84470430499694
O           1.42110141254495    0.27176006419660    2.22998797323646
H           1.44943835773570   -0.41501010003852    1.54300080909106
H           1.53859541318603    1.09852042088098    1.75284267093614
O          -2.02272792067637   -0.34596778257478   -1.74829678537117
H          -2.43419909598665    0.00375014491798   -2.54170960439774
H          -1.07531653599867   -0.52329705081913   -1.98034112362040
O          -1.11426604737818   -0.55868866033504    2.08883033808301
H          -0.78173144626070   -1.26278722212393    1.50972628924588
H          -0.29348287392846   -0.19094490476104    2.48843585721665
O          -1.52043654467471    1.11123249168896    0.27226902875142
H          -1.46985763830437    0.44546618898491    1.10397107859030
H          -0.51133065222558    1.23398737614830    0.00218319534300
H          -1.89311533037254    0.56547891063928   -0.50917371307513
