    19
        -40.92217282
S           0.57637232227494   -0.27877393582442    1.22332771529876
O           0.91138101531597   -1.56141383838323    1.77202068108681
O           1.39635134273595    0.08394705510083    0.06024844570993
O          -0.83311687035393   -0.05589680543298    0.95356102039597
O           0.94371647763125    0.80946280555603    2.33682832609113
H           1.59272887531032    0.38156967990538    2.88754081546637
O           0.44628223196302   -2.46768812241917   -0.71885141141257
H           1.30299818403107   -2.27977952977132   -1.10963751030834
H           0.56042899593749   -2.32422966145198    0.23726323822036
O          -0.94600898882622    2.44793529194144    0.21119212231901
H          -0.33492472869828    2.94589376445644    0.75771136134786
H          -1.04993206390885    1.57137678958525    0.64802944632092
O          -1.53593757223606   -0.85812635018544   -1.50718127100654
H          -0.91121794285678   -1.61325914702442   -1.43521014541170
H          -1.73122494831417   -0.64667508637340   -0.57714450016436
O           0.01656357029118    1.08531504081470   -1.73170456335611
H           0.71461946702822    0.67475122161776   -1.05370247195281
H          -0.69560656420581    0.29047501451765   -1.79927314495886
H          -0.42347280304198    1.79511580355190   -1.15501815367849
