    19
        -40.92246916
S          -0.76377950403629    0.21716998075615   -0.71634761963186
O          -0.77669550829578    0.50753452133264    0.78187168302940
O           0.42728476243040    0.73269567113164   -1.32082946204517
O          -0.99675322849039   -1.19311760600755   -0.92411358273017
O          -1.98069862428544    1.01952114199906   -1.22660527188834
H          -2.75669531266362    0.56482231248658   -0.81326749996501
O           2.51371393321853    1.71406371397230    0.06125486085995
H           2.43087369466027    2.66640565374345    0.13305438542346
H           1.84111531663760    1.42525014224265   -0.58463785874339
O          -3.41192882492160   -0.66864169804686    0.13902956545488
H          -2.72802562040882   -1.27059828166336   -0.19716743050046
H          -3.19695532780471   -0.49895640246650    1.06048176110681
O           1.53482816911657   -1.85658135575582   -0.26079504811065
H           2.04125369907176   -1.46163195901321   -0.97498991841599
H           0.60656152476506   -1.83884533839669   -0.55058636200145
O           1.43644917491315   -0.07376834342035    1.69427948735563
H           1.99539305483512    0.62907009566147    1.28525101557553
H           0.18119214810653    0.26524148543821    1.26701719564580
H           1.60286647316752   -0.87963372405244    1.14710008957230
