    19
        -40.91836411
S          -1.10244136415677    0.23760914383303   -0.34099475190530
O          -0.63787325967543    1.52496380206127   -0.73229369219487
O          -0.34123962328334   -0.88119204081788   -0.85125456441015
O          -1.17541028175343    0.09720740562634    1.19278959258449
O          -2.58134398222258    0.07258351481132   -0.74264560477989
H          -2.79531051888403   -0.87164884453048   -0.53387837944901
O          -2.37235084453232   -2.41589435442843   -0.02483099367347
H          -2.27872375131690   -2.44782282715916    0.93076946531173
H          -1.48573165358113   -2.25785331303017   -0.39142212984372
O           1.93147102214554    2.06115816369213   -1.48090397955042
H           1.00276515265060    2.05496048194531   -1.19233432055479
H           1.91641043347895    2.14352600039766   -2.43594250614373
O           2.21777707281132   -0.24843299494028   -0.10990287572010
H           1.42443059517705   -0.64420450310997   -0.50512785119600
H           2.36447972871524    0.58005065294888   -0.60914262638212
O           1.12846619709899    0.51066442942723    2.10597055171693
H           1.37728565217245   -0.10319625879590    2.80097924627933
H           1.67078168028541    0.26246254114489    1.29463106830816
H          -0.26344225499108    0.32505899093530    1.62553434160593
