    19
        -40.91188297
S           0.98996644249907    1.18174045775851   -0.81676079820470
O           0.54199751429426    1.37242189565293   -2.15742052186945
O          -0.13116683915361    1.54976962616911    0.15947858876881
O           1.55033357645082   -0.08905194171351   -0.47456447198108
O           2.08156123494950    2.26319856741152   -0.48346893669763
H           1.86736440899972    3.06169430821964   -0.96254935273927
O          -0.86609441553628   -2.27428196958796    1.68118860282168
H          -0.25169534563433   -1.57445441643843    1.99135601583768
H          -0.48522750064995   -3.10981641245819    1.95556084565775
O           0.88786467080557   -0.27763270622585    2.15972135873323
H           0.38878043300117    0.54320863857662    2.18301435398331
H           1.31721276252321   -0.29514386779492    1.28850711270610
O          -0.75879081029343   -1.60370057723206   -0.91267713916630
H          -0.92355963036124   -1.94330679338779   -0.00330367385007
H           0.15963057534571   -1.30249377678723   -0.91449301215938
O          -1.98071954995272    0.64599519147971   -1.19102655276657
H          -1.66959552779515    0.94106595882973   -2.05521890440813
H          -1.68376482175200   -0.31519168637786   -1.11597400465728
H          -1.03409718774489    1.22597952387684   -0.33136949001643
