    19
        -40.91907699
S           0.35517992790059    0.74354658210453   -1.45061377967531
O           1.34796573438785    1.77861932893642   -1.28146712916182
O           0.86824875466787   -0.57729596002795   -1.02863567836398
O          -0.91410990357313    1.02588520718948   -0.82074869583350
O           0.08203930736688    0.60567151915622   -3.00366735023187
H           0.92400202898524    0.76825475885733   -3.42108589237602
O          -1.66188052437245   -1.48654955357650   -0.51513819183490
H          -0.81834305004291   -1.72189183030916   -0.92291632625119
H          -1.70612996494426   -0.51970590089959   -0.65283244875860
O          -1.02859358302394   -1.55640687668981    2.01274426608954
H          -1.00640168737496   -2.46910169793575    2.30603937708399
H          -1.41062848806960   -1.55876831798503    1.08717293567484
O           1.15402616019782   -0.42289256527159    1.43111019265631
H           0.29313123023666   -0.89357144853433    1.77548649560587
H           1.13808081653333   -0.56565917160053    0.38548201612433
O           0.62588131230075    2.03840099579448    1.22612727364507
H          -0.31210732339925    2.03417693754610    0.99464870573689
H           0.99496874574200    0.60173377800850    1.51632150399789
H           1.07467049665795    2.17555421516508    0.36197271586507
