    19
        -40.91167212
S           1.51703434186033    0.24305764623980   -0.30049177307838
O           0.87751368420037   -0.27978022117445    0.98859408937111
O           2.19110591319714   -0.82652953375554   -0.96333475976446
O           0.58067621558987    1.00520294933063   -1.06641589621885
O           2.58048287108816    1.26250916937448    0.24281789462287
H           3.33549716712434    0.76941079621915    0.55817969686323
O          -2.16059105540724    0.11147826634072    1.07818407562651
H          -1.51127676570616   -0.17123816023239    1.72601556057057
H          -1.94741914387192    1.04664685602952    0.88767202014077
O          -1.30120138183068   -1.07842010032002   -1.16228176377520
H          -1.81649782569436   -0.71557775717229   -0.40479405153556
H          -0.75040025109013   -0.34652301536681   -1.46543269537129
O          -1.18656319606444    2.52667249479860    0.30233703863862
H          -0.47813782253048    2.08434403638773   -0.19787051904797
H          -1.67291330912183    3.06023397716902   -0.32921711836097
O           0.36382090854593   -2.55406059762647    0.16014655630647
H           0.64276827256268   -1.29639901172967    0.78371873265649
H          -0.38781800194796   -2.21318208279130   -0.40738097791968
H           1.12391935917345   -2.62784570148556   -0.43044612021256
