    19
        -40.91836528
S           1.21031330280686   -0.25571540205875    1.53618970611124
O           1.92044253832877    0.56118929837709    0.53909511055168
O           0.19432655824625    0.52429462777947    2.21834207752109
O           0.70843895733826   -1.48907998426637    0.97570457198464
O           2.29300391636050   -0.64843833148532    2.61411712317696
H           2.51193344868720    0.19365556705834    3.00140396531620
O          -0.28157555009805   -0.31067611306630   -2.67662261233620
H          -0.68348783317715   -0.86093382369927   -1.96801164055051
H          -0.97596534571452   -0.11131113327816   -3.30738213331284
O           0.38725204779463    1.60035623300292   -1.08189933111950
H           0.25358452525952    0.90425129196808   -1.80657237419672
H           1.12976933080163    1.20308462791332   -0.41705026326778
O          -1.38409065535647   -1.44766763246545   -0.51666014164525
H          -1.80096887234517   -2.30875544060409   -0.45499367538616
H          -0.57352385219096   -1.50362468088861    0.06289354434216
O          -1.56662218825726    1.14408851511256    0.41581985952205
H          -1.02668741090554    1.00021322202275    1.23395559892052
H          -0.49029935277150    1.55158350637217   -0.49491443829271
H          -1.82584354485215    0.25348567229502    0.12658506263418
