    19
        -40.92315432
S          -0.94903829570518    0.97344691686570    1.01705936004088
O           0.31347631384222    0.35327084783003    1.42356628333724
O          -0.70360084211760    1.98478763463342   -0.01444117338273
O          -1.93548464101380   -0.00515104315363    0.64617676921847
O          -1.49558724291949    1.76952750216511    2.26099876139410
H          -0.98681087297858    2.57386136171128    2.23231640732810
O           0.55656289141056   -2.12043268006299    0.48587067603752
H           0.16075497323176   -2.79199210125233    1.04318801984876
H           0.42280989635706   -1.26597603227857    0.95318082167488
O          -1.01012667352808   -1.21521640902600   -1.49021531084523
H          -0.40364536512168   -1.77696812158931   -0.96138018042951
H          -1.59959305403707   -0.81766701350917   -0.80965440610523
O           2.25998417218274    0.11742971478958   -0.36537170938867
H           2.35489986373995   -0.84072124926841   -0.34364906201332
H           1.70654633753174    0.33582163069104    0.41649651633444
O           0.37484115626791    0.81152568001163   -1.92294332968165
H          -0.09799576019697    1.42671212164768   -1.22345071287204
H           1.25443330091709    0.56257166933969   -1.45120305296517
H          -0.22242614785018   -0.07483044954665   -1.89654468753031
