    19
        -40.90781940
S           2.14690045324088    1.00807248960900   -0.00029140313752
O           1.44940911202162    1.41672727773273    1.30043334799751
O           2.67893277320078   -0.31823945587767    0.11315173615459
O           1.32078531858715    1.25427627527383   -1.13881026419717
O           3.34612691757454    2.02340291861595   -0.03561593215001
H           3.97417374324318    1.74849458474598    0.63052605498168
O          -2.43416869317908   -1.49170167100405   -1.22694352070240
H          -2.62721800134896   -2.38012412404492   -0.92200323077183
H          -1.47295321306454   -1.44674375099951   -1.34358260243340
O           0.33538576645509   -1.22460054335370   -1.00043689913278
H           1.20881128028913   -1.55239492637421   -0.75294271014571
H           0.51213424641574   -0.32391378865490   -1.32885739128664
O          -2.75795285822152    0.64876056222083    0.43668476034196
H          -2.75768430376516   -0.02835051824937   -0.26871108775969
H          -3.61511031374901    0.60655542247897    0.86271579422529
O          -0.43743691976824   -0.21104471643883    1.41538945362532
H           0.63346067621078    0.77561375265397    1.44738645863478
H          -1.28619749990439    0.23723722194844    1.18850431805871
H          -0.21739848408818   -0.74202700064606    0.62340312799841
