    19
        -40.91413657
S          -0.92184440594535    0.60134118783622   -0.02737975912191
O          -1.19592327981443    0.38235224355707    1.35199123637302
O          -0.08846415143343    1.73673969299425   -0.33970530771172
O          -0.25151108519118   -0.65713933786231   -0.63667374542437
O          -2.24608653833204    0.69577055088009   -0.81117734574728
H          -2.03473113836677    1.14020728307657   -1.67507989106062
O           1.08818137731907   -0.71035665641018    2.42233691485082
H           0.24402456956771   -0.23807965319444    2.34492458130597
H           0.86797163623055   -1.64023844037625    2.23385706744504
O           0.31147144462181   -2.93917359077747    1.01032002851362
H           1.01380933459542   -3.35555235800658    0.50639637157971
H          -0.16031479450283   -2.35797757352556    0.40063136961710
O          -1.19846815032694    2.12513239846673   -2.70240440934357
H          -1.56877150379392    3.00208224334821   -2.83049226823083
H          -0.53350868086478    2.19739632233400   -1.99120557983663
O           2.05739655292109   -0.06670311513563    0.10138756504926
H           1.96577355248478    0.88953569024340    0.03057026202519
H           1.88467507262248   -0.29575954409968    1.06351646962981
H           0.76632019821461   -0.50957735335420   -0.45181355988033
