    19
        -40.91855573
S           0.78033537075358   -0.76327656244726   -0.41267796458204
O           0.44984460880722   -0.33788946749939    0.93362100991271
O          -0.46080456272647   -1.38491241232629   -1.05575923831802
O           1.35401919088565    0.24911032691480   -1.23567517013820
O           1.74642019743926   -1.96206852490883   -0.32543405002937
H           1.41595183998461   -2.51474160778993    0.42799479007680
O           0.66689922798881   -2.79073810760505    1.88790341191468
H           0.38323064278411   -1.85839391250173    1.84212118476076
H           1.24430913400357   -2.87145551721396    2.65115130784023
O           0.76406823179328    2.89023565358057   -0.96324170271016
H           1.01249210007172    1.98347413916784   -1.21493467142436
H           1.57546132073153    3.32891392456389   -0.70209849095007
O          -1.16507259525156    1.84702428026542    0.61944392281836
H          -0.58667064533422    2.43540375609582    0.09516555270795
H          -0.57791721261746    1.15304062942563    0.96006055547391
O          -2.30542199172885    0.32055964000631   -1.12805964543151
H          -1.95744789867057    1.01081229721516   -0.48373500575705
H          -1.23101123012457   -0.69926117239238   -1.15456796806602
H          -3.10868575881969   -0.03583736249860   -0.74127781816968
