    19
        -40.92079114
S           0.62199988544966    0.38232681033980   -1.29401604521562
O          -0.47019365905152    1.26056367381085   -0.87004617671853
O           1.91996469086975    0.95404569913421   -1.04368045739321
O           0.44798975523309   -0.96283557538974   -0.76362129264006
O           0.47254635139480    0.22832381281505   -2.86214566121015
H           0.72294719310396    1.08550096004009   -3.19239344366896
O           1.83005407571918    1.41500675880866    1.55721305778412
H           2.73135406687458    1.50384910347539    1.87269843964774
H           1.88846725211168    1.34402131967565    0.57975430352334
O           0.21974765197011   -0.64802261665490    1.87378662861822
H           0.47228985828638   -0.99813193245825    0.99545423271666
H           0.81267979450576    0.13011424005685    1.99583636216364
O          -2.03142257336721   -1.80610179089046   -0.61900146720503
H          -2.02319354730186   -2.70149618649611   -0.27471996564018
H          -1.09926788998131   -1.58776369561121   -0.85634705795823
O          -1.88664044394224    0.25414333381605    0.89271128353994
H          -2.18446924076352   -0.56211252587898    0.36793484403860
H          -1.07196324520697   -0.10043597878602    1.48231291804328
H          -1.37288997593744    0.80900459083863    0.15826950715655
