    19
        -40.91058104
S           0.36664971008539   -1.24601234081957    1.44039291648622
O           0.32800899965819   -0.00140432528522    2.15721438038946
O          -0.80164730658101   -1.59589173889953    0.69990222569960
O           1.61213055066520   -1.30481053045010    0.56553888296645
O           0.64886653866158   -2.38752478038923    2.47502472971468
H           1.31855187995302   -2.05066747430357    3.06580107522231
O           0.32777065044638    2.03297332784451    0.45131721250451
H           0.25230400079422    1.36550817557278    1.16368059655522
H           0.61595863854345    2.85017300405857    0.86189759584539
O          -1.15170089707815   -0.78423607900593   -1.81451867050867
H          -1.17780405000068   -1.11662117644274   -0.89515809706473
H          -1.49948622850422   -1.48136595973136   -2.37308149544451
O          -1.95283512726624    1.96049527059990   -1.33120133242828
H          -1.26613821481299    2.10785475330349   -0.67097040705107
H          -1.85636309294981    1.04362189358867   -1.61126398347496
O           1.26259015098247    0.25659612280758   -1.32237614255675
H           0.43343918446847   -0.07379760059664   -1.73145814404904
H           1.01228996432105    1.07571820392138   -0.84598128139406
H           1.52741466862796   -0.65060875572298   -0.28476007137522
