    19
        -40.91747636
S          -1.30552659447078   -0.33544517508605   -0.14992665589481
O          -0.67438425204849   -1.56152841777917    0.20772969945254
O          -0.41345158188889    0.33849559435093   -1.25994053358668
O          -2.65933261622698   -0.36605062859341   -0.59778226676157
O          -1.21221035292104    0.68547700101067    1.00187606248937
H          -0.28770781145219    0.62346251546911    1.44430521063463
O           1.13866500622798    0.59328311126893    1.91950255254172
H           1.45143847862327    1.45840119998824    2.19326837912202
H           1.66051878360750    0.34705146790264    1.09721014874462
O           2.26388449719966   -0.02463922256567   -0.33552452106907
H           2.31606125386720   -1.00472484419933   -0.28826092248923
H           1.54109724064341    0.15447153242306   -0.94839204657273
O           1.80072311019868   -2.64201837266894   -0.02646849594551
H           0.85697461460666   -2.40354857865259   -0.00682546283242
H           1.98875033438126   -3.04491062455515    0.82337609138450
O          -2.30641601450688    2.09947502109703   -1.49688874913304
H          -2.37903041048643    2.67036993923750   -0.72777739846922
H          -0.95483659698825    1.11235838984596   -1.55583952950845
H          -2.82521707837674    1.30002010149642   -1.29364153209444
