    19
        -40.92135269
S           0.76786857227869    0.19680090723002    0.39928305752749
O          -0.43215220572076    0.93306969914562    0.84526367387902
O           0.69333726866922   -1.20376054010763    0.80381624362146
O           0.95677679364804    0.35062891580869   -1.02715366076188
O           1.98546191985349    0.84411378183498    1.11355757056538
H           1.95117166034565    0.49385314852712    2.03311936935114
O          -0.82503941986978    1.59084685971072   -2.48326433313777
H          -0.69034548080382    2.53666082114007   -2.39895935434443
H          -0.04130017661751    1.16083754944263   -2.06053348431211
O           1.60349386551331   -0.67371453010855    3.21799066298288
H           1.11832028382107   -1.11248870557979    2.49190237639556
H           2.31978151130979   -1.26331812716683    3.46548491614404
O          -1.01295280517645   -1.81885031080642   -1.10437815581620
H          -0.39489389825080   -1.76910236672343   -0.34044938264123
H          -0.46095747463044   -1.69706253558714   -1.88235417547649
O          -2.22495453677411    0.39287272996770   -0.72352843049894
H          -1.51385762582431    0.67972631806061    0.07495193463718
H          -1.86715203061157    0.92985253805065   -1.51477224775488
H          -1.93260622115052   -0.57096613287727   -0.90997657033252
