    19
        -40.91747621
S          -1.13254592677881   -0.74471151535163   -0.05682533026471
O          -0.39173737793812   -1.15854136988542   -1.20117880183085
O          -1.08780775197934    0.82977242416304   -0.02008939373527
O          -2.48628938149849   -1.17376546407499    0.07580182470673
O          -0.38954755653225   -1.11828449058000    1.24172192829918
H           0.61744483372482   -0.95740899422473    1.12186331240226
O           1.61893120400358    1.47883346477225   -0.65704482448640
H           0.67053007060810    1.60246981132668   -0.53335809878850
H           1.70553458083616    1.07335780527244   -1.54785699623622
O           1.47531589841275   -0.06755203057550   -2.83608623016458
H           2.13906155396909   -0.74832839607674   -2.96179032016769
H           0.72521805554714   -0.50343284252131   -2.39435368709819
O           2.04640272861065   -0.53167513109867    0.92670676627500
H           1.98036599624478    0.25402538009612    0.30429927908444
H           2.44541936325625   -0.20635238543233    1.73673821974424
O          -2.77745937446456    0.67886029784337    1.94527598016036
H          -1.71112853116857    1.06273020252541    0.71255098146855
H          -3.06109325854627   -0.07914439848832    1.40258574391948
H          -2.38661512630153    0.30914763233073    2.74103966673236
