    19
        -40.92246919
S           0.28325469302333   -0.09481834756806   -1.02857347547696
O           1.11927264746263    0.45039574397066    0.12631365071462
O           0.22668724649946   -1.53467757026418   -0.92916277626156
O          -0.98774498370765    0.56163742087012   -1.08624857113780
O           1.11738258284500    0.30251652554260   -2.26597108424836
H           1.94462274072093   -0.23408465882466   -2.17819228035738
O          -1.61835211247042   -1.47375362692057    1.04081810915717
H          -0.98957152976284   -1.72048153751744    0.34104990852643
H          -2.38340496215382   -1.10760657985607    0.59015310524657
O          -1.90869242201240    2.22244592474503    0.81680660706359
H          -1.70317469378953    3.12764857088473    0.57740590612249
H          -1.71579209865140    1.67727284369078    0.03041743703831
O           2.87714333640486   -1.38995700738090   -1.37116677630968
H           2.06341835310500   -1.87203985065193   -1.15115428881270
H           3.19989765704019   -1.00962954506080   -0.54937766764746
O          -0.31463994921614    0.55920923712681    2.12675278481356
H           0.54797882192719    0.52208729459871    1.06392210395927
H          -0.93154028406757    1.28586003015955    1.87146785897616
H          -0.82674504323054   -0.27202487753563    1.97473946862694
