    19
        -40.92011103
S           0.35992247726588    0.63162760992803    0.80914901187698
O           0.45067177306672    1.14368948261499   -0.57379436536213
O          -0.96086459532182    0.03424153905258    1.02513295835399
O           1.44353901526675   -0.27031546326809    1.10471665390318
O           0.48561582699907    1.85952896178831    1.75153019740322
H          -0.38011608705354    2.31510861292527    1.67306416357478
O           2.49151442303231   -1.72211162873918   -0.78760155398723
H           2.15453034721302   -1.28244114340149    0.03329738024508
H           3.37396470273377   -1.37408105081023   -0.93207489931976
O          -2.08998974970326    2.34937514825791    1.50943083740309
H          -2.56478137234788    2.34632674806296    2.34383557607779
H          -1.93968121613118    1.41275290073174    1.26790149853857
O          -1.43361485161087   -1.71190191404446   -0.86280071784174
H          -2.32377485769549   -1.52643666596935   -1.16916853822704
H          -1.29001394835420   -1.14564270251784   -0.06402104782223
O           0.56414711529028   -0.74861188895385   -2.11849967207826
H          -0.25029432326389   -1.25186530317732   -1.76549048817367
H           0.52698576131241    0.17357222702177   -1.51711791180070
H           1.38223955028087   -1.23281546762255   -1.72748906187330
