    19
        -40.91907711
S          -0.58384377180395    1.13235315138731   -1.07614145082200
O          -1.22813210811749    2.22705035158154   -0.38890070701321
O           0.83339687927699    0.99776638296993   -0.67733731997056
O          -1.27206593280967   -0.13258065401832   -0.95930598067102
O          -0.54899544190747    1.50117806244904   -2.61515751474415
H          -0.42413186642555    2.44624047919787   -2.64308457552650
O           0.78729609952217    0.26682554851021    1.69339315166397
H           0.91487686076082    0.64455418987758    0.71633683026544
H           0.94248212991976   -0.75764250660576    1.60335904922271
O           1.12364400353621   -2.19032771414982    1.20906418229090
H           0.99874563939485   -2.13340911248479    0.21707452067632
H           1.99019061698764   -2.57286830546087    1.35824142657200
O           0.84683711408521   -1.66135985818458   -1.32833267041908
H          -0.07923716567732   -1.34810656124702   -1.33468798077274
H           1.35057981511972   -0.84036156099605   -1.40232668937188
O          -1.70912164333786    0.64736429960067    1.64778786902685
H          -2.02184270167072   -0.06395409605434    1.07381399817855
H          -0.23126024787233    0.40671512189085    1.85293850268347
H          -1.68941827898233    1.43056279176066    1.05326536872737
