    19
        -40.91889825
S           0.35296742999724   -0.14222458174148   -1.44834244113620
O          -0.54681549596409   -1.00027094887763   -0.64724387071358
O          -0.40349395535002    0.84579458665288   -2.18946929139722
O           1.41018001396505    0.39282239229478   -0.63296382448391
O           1.00475776084051   -1.10184736432201   -2.52153770638837
H           0.36577971502943   -1.10351980054329   -3.22797218371348
O           1.19239980694174    0.21809888475118    1.96519045239478
H           1.22759350870220   -0.76173474285873    2.00676453275395
H           1.52120852562900    0.41871402143742    1.05565737940446
O          -1.14134418632375    2.49387681829334   -0.31858467097414
H          -1.95157564376134    2.91721736106033   -0.61063423035083
H          -0.80186791406366    1.97665378792170   -1.09208423494581
O           0.76623453302594   -2.32374732224898    1.28703850149967
H           0.21455111704920   -3.04712514416876    1.58830958991670
H           0.34251812606557   -1.96505504645728    0.48220386942795
O          -1.15545932654186    0.50857712794175    1.27604981942463
H          -1.20480569013291    1.39858989613455    0.77962976997329
H          -1.06062030594512   -0.17664464706731    0.51858257089275
H          -0.13220800929068    0.45182471180458    1.72940595846643
