    19
        -40.91965225
S           1.24405729209446   -0.63400097824073    0.64736898563033
O           1.36904663060613    0.52137499769945   -0.25517795695477
O          -0.12843274185263   -0.71026835414703    1.15670489379643
O           1.72074637757513   -1.86079211241889    0.09130059653295
O           2.15866395383534   -0.27447678245394    1.88639827147202
H           2.08299156096212    0.67043476992732    1.98910625071385
O          -1.17152516766897    1.57768079650761    1.78944650607942
H          -2.02731241386911    1.46563013938563    2.20756725699459
H          -0.77276641195122    0.67317086938069    1.71579590222228
O           0.50593893808262   -1.48356255215804   -2.23834491823390
H           1.04537385997195   -0.78725917864877   -2.61951925027414
H           1.00137552877941   -1.80008438079511   -1.45691550455625
O          -1.67537211059745   -0.69300370548966   -0.99688622489915
H          -1.04119398862500   -1.08870321986470   -1.64342517736760
H          -1.30561768945444   -0.94546171813624   -0.12432642092067
O          -0.80296119538875    1.61107834520975   -0.75095791646281
H          -1.31364779172484    0.67525171471510   -0.97037340784546
H          -1.06762082188587    1.82770035403062    0.20041054950534
H           0.17825619111475    1.25529097549589   -0.62817240542666
