    19
        -40.91392426
S           0.53323640021454   -2.13324300530027    0.40250871555474
O           1.16606694416792   -3.32327256200736    0.83638728972425
O           0.83365359492656   -1.86848203119005   -1.06085858047696
O          -0.85969608025260   -1.94378862816074    0.68527882311375
O           1.26530411150748   -0.90716783674436    1.14024014668575
H           2.18724105096532   -1.15134852281895    1.16908745210857
O          -2.11712892867255    0.29648136982457    0.23175190629630
H          -3.06770742480909    0.17395741631311    0.24377842595811
H          -1.72052606062997   -0.57057680584340    0.48392179680739
O           1.18042340300181    2.12549289660109   -0.93339287451517
H           0.82937357650170    2.06821012589565   -0.01379727688976
H           1.06351339591072    3.03343910612172   -1.21627468849733
O          -0.00234894038021    1.65160353218621    1.41331672800313
H          -0.88215443061938    1.37028600512854    1.11675895702444
H           0.46176801877017    0.83892527984038    1.64426114232568
O          -0.35795624866557    0.16839409304376   -1.84100763412281
H          -1.10427481715145    0.29459473329422   -1.22256083346891
H           0.27988489962850    0.89839117053853   -1.64350337050451
H           0.31132755556794   -1.02189634670993   -1.43589611512197
