    19
        -40.90821843
S          -0.29092277183244    0.10402980659626    1.67076725600200
O           0.76872953708595    1.18623656000969    1.48194201094770
O          -1.48112772610377    0.48231324670733    0.95099083887774
O           0.19578010828833   -1.20698267022151    1.41611607634850
O          -0.58974951601144    0.20340464697078    3.20500329474257
H          -0.99683255851236    1.04877095513960    3.38722346821767
O          -1.42280243394879   -1.58647019650986   -0.82241236956342
H          -1.72290982329439   -0.86271407221557   -0.25063778390960
H          -0.87606279846685   -2.13488121617675   -0.24924967700054
O           2.38123281589675   -0.74659258867926   -0.34672833338029
H           1.79102719747952   -1.05626922485856    0.34786250813455
H           1.83721892722513   -0.61452929665310   -1.13207134053635
O           0.32714715738990   -0.23907582496614   -2.29048457754832
H          -0.35367955789335   -0.80488157468969   -1.84996296627888
H           0.26990125902741   -0.40977672465692   -3.23168888898318
O           0.06649383446205    1.96879186215834   -0.79719726287095
H          -0.86304093641817    1.81906353624280   -0.58504646895470
H           0.64902398082274    1.58247887520822    0.53578499077656
H           0.31057331480201    1.26708390059007   -1.44021077502164
