    19
        -40.92221097
S           0.84214617784017   -0.38099936099979   -0.50980467353376
O          -0.36925898948965    0.30645626302456   -1.18240778082078
O           0.83940571308022   -1.75036668426786   -0.91635767734033
O           2.03594076241742    0.37096191264487   -0.73787853761594
O           0.51363897539567   -0.27071247823922    1.00193922602483
H          -0.43418379013747   -0.62343318897775    1.11912010272796
O           1.84340756530041    2.28737437539165    1.09186344193258
H           2.15726103097895    1.62785624749031    0.44187949682289
H           1.59365023983178    1.78090124786485    1.86883497708249
O          -1.38175398164936   -3.15668026662174   -0.56332512056173
H          -0.55649174731653   -2.71482015065758   -0.85296483320948
H          -1.11994968263558   -4.01332288237093   -0.22023704266583
O          -1.88750855591976   -1.09408281379562    0.99291915389492
H          -2.33172330558009   -0.47042038182006    0.41204684197998
H          -1.82740084947083   -1.94080542930222    0.48184627047305
O          -0.20769542742809    2.74669947681612   -0.47913319016700
H           0.12122659218671    3.29087869294166   -1.19838604557789
H          -0.35420443640909    1.29510753396341   -0.94435404748529
H           0.52349367898617    2.70940788693059    0.19439943806338
