    19
        -40.92217278
S           0.63016704237780   -0.05251323611237   -1.22749215213040
O           0.15968557141785   -1.17809485995649   -0.43960870995226
O           0.04446992463885    0.08627726529260   -2.52986763824621
O           0.59346674000100    1.18810179955734   -0.44250160257624
O           2.18646279064461   -0.34789289648874   -1.45111112670921
H           2.37318387423119   -0.00937721126050   -2.32177279249671
O           1.66826459546851   -1.12975756803281    1.69493540767827
H           2.55720819409209   -0.89360515717058    1.42282856050936
H           1.18187733515744   -1.35639147972666    0.86914883008095
O          -2.00027435636958   -0.56063887124790    1.02505058082578
H          -2.32447838675458    0.01480529099552    0.29742084939622
H          -1.41880138063431   -1.19038440637612    0.56340983962275
O          -2.12693350200876    0.93535813819796   -1.18560720904412
H          -1.87940127250185    1.85549167151152   -1.06719083616182
H          -1.47504252370624    0.56987793079964   -1.80948105197031
O          -0.06166171068666    0.74742530693769    1.90139057292241
H          -0.96567985115251    0.22024734412566    1.68076332792707
H           0.63297872766030    0.03010677764667    2.08222154684203
H           0.22450817816056    1.07096415133867    0.93746359350149
