    19
        -40.91735117
S          -0.42848081955550   -1.27135544206647   -0.29355417519049
O           0.79361518023212   -0.98367776982947   -1.00996054064633
O          -1.18718393376597   -2.36690769294708   -0.79650156664611
O          -0.19095981756624   -1.37893285584455    1.18183575981227
O          -1.31780376872548    0.04945890750923   -0.38972788827926
H          -1.50030659805958    0.08836273274870   -1.35581777231084
O          -1.13697326757765    1.98757985219849    1.60028291449211
H          -1.87491598663722    1.87263384116374    2.20236023071920
H          -1.32171235907401    1.43926316185580    0.82203989361873
O          -1.25784297282475   -0.63876297751317   -2.89821282158564
H          -0.29548594544482   -0.64670887832501   -2.94518161529816
H          -1.50757512901534   -1.52419369966577   -2.59858531426404
O           2.49498577101115    0.79575722615194   -0.05921249440685
H           1.90571377298931    0.16519043137535   -0.52816450287645
H           3.37412568278034    0.41368969000541   -0.08673092341831
O           1.03482154818695    0.54263176831936    2.09697216226968
H           1.68514909938517    0.75369751366547    1.37401427611455
H           0.33302516123668    1.23490602553880    2.04785417213587
H           0.39780439243645   -0.53263182433348    1.63629020577727
