    19
        -40.92021801
S           0.49419070306559    0.68526552516191   -0.63869279289153
O          -0.12008251169926    1.77626902425543    0.04941884889789
O          -0.42134893241958   -0.17132536276066   -1.37176274907829
O           1.54111010461583    1.23959669566564   -1.62985593430510
O           1.32062516704491   -0.16221486723837    0.31092316623459
H           0.74890129616798   -0.48956122778884    1.18402578577055
O          -0.73647719020080    1.70431061001496    2.66326982559089
H          -0.12507137711391    2.30080470383955    3.09925914585370
H          -0.64755837477609    1.87253843172264    1.70589607425547
O          -0.10836599000693   -0.82395990170487    2.20894564599405
H          -0.38606771883535    0.05562274794642    2.56599380398375
H          -0.88860318199459   -1.16592886131488    1.71387709597740
O          -1.94980898452429   -1.47981635832474    0.40982147459138
H          -1.52429440022430   -0.96835846505547   -0.30447261452821
H          -2.06967322789967   -2.37109815606712    0.07622704843167
O           1.40361469293112   -0.87512632895384   -3.14084617736681
H           1.13607602441404   -0.71102467130928   -4.04848179955620
H           1.74453372359503    0.49449444747162   -2.24837284428631
H           0.58830016785055   -0.91048799557085   -2.60517300356450
