    19
        -40.91816434
S          -0.72878451740766    0.04329497960739   -0.50457342941521
O          -0.40018251665580   -1.07586768941777    0.34524312596407
O          -2.11527738130173    0.59826483004610   -0.17683120035119
O           0.26766269846819    1.08497366073912   -0.43741051742441
O          -0.95152569695364   -0.41730539731703   -1.94524601412541
H          -0.12969395677112   -0.88525613582299   -2.32653018821291
O           1.14748884516817   -1.64851464015461   -2.69966860602963
H           0.98053629528272   -2.59388207229380   -2.72454547770363
H           1.71766412018087   -1.48043849079761   -1.90634802228483
O           0.51286917398038    0.89004683908696    2.22438657470200
H           0.46775844610736   -0.07027363082759    2.26629825192795
H           0.62703740165173    1.10492252441989    1.28024385125515
O           2.18556889652249   -1.04791049504397   -0.35849362264849
H           2.28603405786886   -0.09093074026790   -0.36339968257138
H           1.32681445251823   -1.21794075072736    0.07085589914908
O          -1.98882326550186    1.69601851231336    2.11898557549142
H          -2.14670572049050    1.01847960927132    0.75163757868304
H          -1.06191572411229    1.44064850907372    2.36047042607375
H          -1.99652560852985    2.65167059811324    2.02492546752141
