    19
        -40.92217275
S          -0.31531405474283    0.50465528640859   -1.24560213132348
O           0.07811155385663    1.39044208236770   -0.14231622123879
O           0.53547931601514    0.62270304934060   -2.39480299158562
O          -0.54786021020130   -0.84689713006596   -0.76770525464941
O          -1.76279771106180    1.02284948276451   -1.68803651823690
H          -1.59847849475538    1.58828996529748   -2.43688334709407
O           2.52120214927012    0.05786928272956   -0.66856956697761
H           2.67416608132248    0.93949677905836   -0.32055905661831
H           1.92377816280877    0.17896354233329   -1.42768349257033
O           1.30256928067559   -1.62869874570400    1.00892729364498
H           1.98752987698709   -1.13409045762791    0.50716720718192
H           0.62133306465955   -1.80245404708210    0.33549834016696
O          -2.30881969853605   -0.54653761837766    1.14045507298046
H          -1.80133729632255   -0.79603805783126    0.33412892805221
H          -2.93295475138832    0.12699887312665    0.86322144977229
O          -0.03288767218211    0.21722954564240    2.03212943403781
H          -0.98755836027014   -0.11339801277975    1.93572569963035
H           0.58534101883868   -0.61118914815054    1.75828012010362
H           0.05849774509477    0.82980532881177    1.17662503475117
