    19
        -40.91912319
S          -0.12263396599734    0.37496335882263    1.27646773620562
O           0.49137446072991    1.51015196565632    0.65699493158271
O           0.63217114520024   -0.88917962611244    0.71917417562782
O          -0.11688155152998    0.31320356640209    2.70309497977443
O          -1.55167871414044    0.19807610529281    0.77714614412569
H          -1.61612273954747    0.29145589498467   -0.25919555002017
O           0.75017569624863   -0.83961348204623   -2.12432595704693
H           1.09098489202900    0.04853794823214   -2.30255615838835
H           0.95004766133033   -1.02570682627373   -1.19887447891198
O           0.72559731916305    1.97840109643596   -1.94238360457992
H           1.14854543945526    2.82050349025460   -2.11527757084429
H           0.71076299502366    1.87301028748559   -0.96879824615570
O          -1.55739041045427    0.40389796720431   -1.72634083268694
H          -1.13468041160335    1.24972716344763   -1.93823422274267
H          -0.88514173377055   -0.26505210407984   -2.00136488364660
O          -0.12623430548107   -2.31693227783718    2.73001138829822
H           0.53800310431873   -2.68872268389769    3.31586312314026
H          -0.31651502962127   -1.41506119187082    3.05302565402201
H           0.38961616866105   -1.62166066210223    1.34557337221873
