    19
        -40.90789768
S           0.50683849494756    1.80061093974929   -0.44110567820793
O           0.06614905353931    1.25160728995764   -1.80549601584094
O          -0.64601460078011    2.05743062181455    0.37215444200082
O           1.53214008088703    1.00495045242081    0.14451517523815
O           1.12713193944445    3.17516793003746   -0.85860814362832
H           0.39749322206252    3.75774251772760   -1.05913079711433
O          -1.63094998238810   -0.36059095128884    1.11533288989695
H          -1.45150885477961    0.59217018200696    1.04513260468838
H          -0.88133857864765   -0.73266284013550    1.60808375031965
O           0.79689210221122   -2.91366623501199   -0.25370373778213
H           0.87127446109690   -2.38824377778479    0.55330352011187
H           0.25615505358492   -2.39135832226997   -0.85326504086575
O           0.93423790674411   -0.97793775050687    1.86723597828281
H           1.25688245184037   -0.27822970072913    1.26888344472589
H           1.61929512367318   -1.11864973659073    2.52291300071152
O          -1.09832373037328   -0.93477999246317   -1.33492297765536
H          -1.37575341841260   -0.81133598571820   -0.36985990022773
H          -1.90367502453655   -1.06693054583798   -1.84023148148317
H          -0.37692569077813    0.33470589497870   -1.68123102360177
