    19
        -40.92136384
S          -0.90019102189457    0.53352498874452   -0.90879156168165
O          -2.27217862941403    0.79540619925401   -0.55096028956425
O           0.06870668462095    1.27842919788343   -0.13686310309687
O          -0.58434257947016   -0.90578566390191   -0.89771999329878
O          -0.71872093295691    0.98297119431793   -2.42085867130276
H          -1.58461069211269    0.87180048352613   -2.80338242932219
O           1.98938254817511   -0.02433081112167    1.08127033380053
H           1.42565258921095    0.70114300809432    0.72801610366840
H           2.34430885559132   -0.43535697376352    0.26234034596051
O          -1.66745536464669    0.50722927771650    1.99771373060357
H          -1.18562684263826    1.32386132768349    2.15597492732403
H          -2.07435194434695    0.61551146568540    1.10816256084131
O           2.03773908276925   -0.80722214006577   -1.46610608184645
H           1.07581369982418   -0.95570000999194   -1.39744683992974
H           2.15185745801065   -0.10050860643187   -2.10380904858549
O          -0.03536193763643   -1.39030927978681    1.50137299842350
H           0.92864152191782   -0.87581315042899    1.45509772723851
H          -0.69984693703937   -0.71318707411925    1.88731102009937
H          -0.29941555796349   -1.40166343328642    0.50867828070956
