    19
        -40.91103822
S           1.08665138522985    0.93947714091874    0.52382129147452
O           1.23654314008101    1.92179720207547   -0.53079599594745
O          -0.30213990454034    0.94271463789951    1.03140428362424
O           1.50611128849549   -0.38668424961334    0.14835082965190
O           1.97723551112309    1.39387353087035    1.73394668198983
H           1.65450956130768    2.26375563596373    1.95035041228670
O          -0.21936401799016   -2.23284318056284   -0.36543444690038
H           0.53348511855976   -1.63453427512857   -0.11178578855147
H           0.09023789348757   -2.76067356776568   -1.10414568288212
O          -0.69130765609084   -1.39578384987945    2.54408503368268
H          -0.55614944711989   -2.02371203423939    1.83018182970080
H          -0.53428037326701   -0.51859024451916    2.17278923185756
O          -0.25871217184931    1.01291270792428   -2.42531426714877
H           0.41106647802600    1.37624212134390   -1.78298782057920
H          -0.60084242789588    1.76798847980481   -2.90949673273543
O          -1.66340855082897   -0.17444536434204   -0.69708458277217
H          -1.24379202928208   -1.11056529064580   -0.61640467744380
H          -1.21492229104450    0.34203800719643    0.11832796733769
H          -1.21092150629805    0.27703260261078   -1.50980755662179
