    19
        -40.92217245
S           0.89046942085839   -0.81745153552819   -0.66615498614644
O           0.80154167840488   -0.61071345819164    0.76845706673036
O           0.69071446720276   -2.16489204050184   -1.11662035383858
O           0.06711938819596    0.16085372122914   -1.38864155583861
O           2.39898282685963   -0.42834047495008   -1.02991056407235
H           2.63534301611372   -1.01718336655552   -1.74042008499239
O          -1.90051616533513   -1.69742949140928   -0.55963684881399
H          -1.01073224798441   -2.05747588484222   -0.72243003817528
H          -2.15166668638107   -1.25826661339876   -1.37570019096654
O           1.46814628793947    1.89675736630688    1.08575183404979
H           2.17913502153416    2.09202810012663    0.47231222021023
H           1.38897527543917    0.91534176731102    1.10730130498201
O          -1.70628313230982   -0.08984317470831    1.56642847844306
H          -2.04515971184932   -0.71727599241098    0.89015729354366
H          -0.79843881111999   -0.40492460801098    1.72203248637570
O          -0.91846470097922    1.81811648757215    0.16001061858769
H          -0.56498010643087    1.17912701242609   -0.60340789006018
H          -1.37507915994092    1.11337681480245    0.82182165249221
H          -0.04910664008589    2.08819537074091    0.60864952762872
