    19
        -40.92022119
S          -0.74129849990587   -0.49714390991976   -0.24391847551992
O           0.49775793337681   -1.22633601042725   -0.15709312746474
O          -1.84734824187881   -1.17779588207966    0.56192217543207
O          -0.62761119977112    0.88002602869601    0.17708452443812
O          -1.27085287153936   -0.57367930432393   -1.68002118794537
H          -0.45384932597737   -0.61591594262359   -2.29899846238382
O           0.98184973190664   -0.56010998452533   -2.83001500006603
H           1.22507402038138    0.34621278372913   -2.53416362702572
H           1.39048609262234   -1.15665488725121   -2.19197693678572
O           1.03372253153383   -0.60824707332170    2.40840025381280
H           1.70772531225270    0.07348409821928    2.36532562303023
H           0.96082779088726   -0.97481007159779    1.50874345097898
O           1.18056762624022    1.79618660891778   -1.58109056469124
H           0.56746081273533    1.56444030380361   -0.85726173947057
H           0.83174326088608    2.59241915361666   -1.98737522481978
O          -1.52318167664432    0.10910929813685    2.71476920050997
H          -1.45360870242170    0.96498479996232    2.27660492305137
H          -1.86344207799852   -0.74742855228498    1.49368220795229
H          -0.59602249662545   -0.18874145676030    2.85538196696959
