    19
        -40.92267746
S           0.34606560184422    0.69550176387522   -0.72697825754429
O           1.65914451859358    0.66895545230744   -0.09971748183136
O           0.04781045594260   -0.51157528726706   -1.46367743601562
O          -0.69496727154677    0.95024824292618    0.29975406842178
O           0.28234536588182    1.89380740356214   -1.71447744941037
H           0.52928910032464    2.65904499648450   -1.14900772652653
O           1.36988075565017   -1.72183931460042    0.93545038967061
H           1.64398223263294   -0.82747653731976    0.62086601858258
H           1.41625428202977   -2.28872141885700    0.16055164644305
O           0.99860686598221    3.22652419064086    0.42847042123875
H           0.21364145550442    2.99382632990844    0.93484617552482
H           1.58716560595211    2.45753795563640    0.49429773414954
O          -1.87672714758941   -2.14352438691890   -0.79933184857131
H          -1.15729227486332   -1.60709045440177   -1.21498128244411
H          -2.70017856080349   -1.83100604112359   -1.17909971264163
O          -1.06947407576845   -1.20247112006341    1.41814978984807
H          -0.97870901232685   -0.19429402154172    1.02183148376624
H          -1.52775662234501   -1.69782148256590    0.64666444108170
H          -0.08908128509372   -1.51962629068084    1.38638903625623
