    19
        -40.92078074
S           0.85974208886746   -0.12707668213214   -0.57604510111599
O           0.17444651253087   -1.06608035771940    0.46222706007210
O          -0.00559672262092    1.01900699082441   -0.76428686664952
O           2.17974163292881    0.18665993400937   -0.14553981832127
O           0.87545509457714   -0.98424947443822   -1.83473168059469
H          -0.03212776059155   -1.45901391140345   -1.90562743542882
O           0.75835022488726    2.26336800565311    1.49934365978773
H           0.38209606229724    1.95836055461502    0.65463632785496
H           1.57898188086988    2.70655939044090    1.27145986723003
O          -2.52643327299655    0.29961426739696   -1.25856637258429
H          -1.64447057138864    0.70702306674904   -1.14998662615176
H          -3.05473528022877    0.59081038600287   -0.51312717854390
O          -1.40912965510699   -2.06715307945714   -1.69572973298851
H          -1.98589260937452   -1.26933392122972   -1.64972954689701
H          -1.35088321426926   -2.41094647118213   -0.79896857102823
O           1.33562042859060   -0.13614993012805    2.50919447536519
H           0.55880790680422   -0.80865497900766    1.37245365545542
H           2.23251731644714   -0.20560291540372    2.16440734386002
H           1.07350992784102    0.80285915639707    2.35861656069785
