    19
        -40.91990218
S          -0.60076489273410   -1.24060672924123   -0.61921352020024
O          -1.18108221586440    0.09088805144358   -0.69490923922493
O           0.79918157696029   -1.14663168742412   -0.14514775183693
O          -1.37560076898408   -2.16795057338897    0.15144300540550
O          -0.50665362491676   -1.77474986149166   -2.10047844529255
H          -0.24041721215995   -1.02207076425036   -2.62438994307615
O           1.96070303930731    0.75110720336271   -1.56954685752256
H           2.91246698821791    0.64333675163396   -1.60574115472411
H           1.60941864896994   -0.03227612116523   -1.09471807650819
O           0.27664231189435    2.13346370460214    0.03024701988870
H           1.02177473525869    1.97601851474901   -0.58197891109605
H          -0.44066743568816    1.56992835819075   -0.34332451251034
O          -1.78437755867515   -0.37880422248105    2.04014507347947
H          -2.35124732797171    0.23078491132374    1.55810996431644
H          -1.73059504877299   -1.17991593432028    1.46999579261897
O           0.61625395084772    0.41581146446021    1.79632326085110
H          -0.34368794452773    0.16185561993843    2.07479707547298
H           0.83592673858477   -0.31403536771176    1.09742372709362
H           0.52272604019743    1.28384667175852    1.16096350288935
