    19
        -40.91836638
S          -0.66110241645658   -1.61635823158684   -0.91745987091455
O          -0.69272989704535   -0.71943843196668   -2.05805581875403
O           0.72263492127576   -1.87800948557897   -0.49110466203438
O          -1.49792445581836   -1.18376834979525    0.17790291001027
O          -1.22747741057013   -3.00465993166831   -1.40769370274126
H          -0.71358791193995   -3.17023215534313   -2.19228829583886
O          -1.28532358603318    1.21922649905846    1.06525951235340
H          -2.12639097478800    1.45784545968996    1.45857488747247
H          -1.39995351086186    0.28135407115532    0.74377831480089
O           1.96244448720574    0.19204342998492   -0.00515196921309
H           1.74993627381708    0.40942069881362    0.96202585571547
H           1.51054837174211   -0.75996381629291   -0.20551174103242
O           1.08249582507826    0.96424202476207    2.29061807138074
H           1.37119050796094    1.83092659811223    2.58283253260152
H           0.15250645587189    1.05693517296861    1.98561291957329
O           0.23903794227465    1.54989492560770   -1.21149192376835
H          -0.14955743372899    0.78746100010819   -1.71072192506646
H          -0.39504241919528    1.73208149713510   -0.49818592416780
H           1.35829525089597    0.85099901463963   -0.56893915975340
