    19
        -40.91271001
S          -0.36939079494303    0.39459899836648    0.12149321808760
O          -0.56267169947105    1.60331737635844   -0.81828017228169
O           0.76386052783450   -0.36950110079395   -0.33201049080841
O          -0.32905689532703    0.82625630267504    1.48456165073271
O          -1.65473788628443   -0.42630884875577   -0.09527556946187
H          -1.45470100748383   -1.05619509798457   -0.87690037370964
O          -1.56038477916582   -3.33214844423142    0.55655362883073
H          -2.36341655708439   -3.82880415080318    0.72678256184750
H          -1.69823125214617   -2.44405189705061    0.90210502474377
O           1.75620476664368    2.51125211837147    1.70542931994994
H           1.03824835432316    1.85573645133827    1.79368982659688
H           1.43511870698542    3.31886810811041    2.11170605623436
O          -0.73606275696048   -2.10171335933625   -1.74945813295567
H           0.13195755290231   -1.73737878580743   -1.51206191325859
H          -0.88320755459307   -2.85818965540633   -1.15506131394797
O           1.91744130621234    2.11510878590370   -0.92757767260267
H           2.14811073208880    1.17861753103784   -0.94336978213459
H           0.37652243657885    1.95088862724103   -0.99808865019719
H           2.04439677988434    2.39964702060457    0.00576278434047
