    19
        -40.91836578
S           1.21166864685234    0.94245318466000    1.23788571622466
O           2.04374417195100    0.23632653364387    0.25106659868104
O           0.58824305381583    2.11387512167928    0.64984112535795
O           0.27443964214987    0.05951279330514    1.89335921724434
O           2.20714282772352    1.46105589025124    2.34646573042776
H           2.69316950753324    2.13767545349405    1.88496532634358
O          -1.04282589568733    1.21924654461811   -1.16016762965854
H          -1.61081173110156    0.65802686841403   -0.60639108764126
H          -0.49954917591529    1.74462883272179   -0.51961278064414
O          -0.64269209972085   -2.40858263800308   -1.06664684756444
H          -1.12867386565623   -1.91849899594489   -0.36675891624047
H          -1.29311569094791   -2.71100594243869   -1.70324563486979
O          -1.83016083295870   -0.71817608029974    0.63925899882556
H          -1.02787321805678   -0.43304088899422    1.15990477393924
H          -2.50172204856475   -0.91544223800662    1.29440482367753
O           0.78360924035053   -0.38045011647634   -1.77112019826220
H           1.41731133094515   -0.14367797747644   -0.93837528924657
H           0.35239592882062   -1.27190198906350   -1.55521128418582
H           0.00570017847592    0.32797564401248   -1.66962262234595
