    19
        -40.90774468
S           1.75824508010038   -0.25127551326111    1.53157375385387
O           2.93474114303245   -0.70964853136428    2.17339417280348
O           0.88172135715111    0.53918390373735    2.49601006230067
O           1.86224320805900    0.43461925398577    0.27705788131757
O           0.85806564730879   -1.54133588040285    1.22198072536726
H           0.93088342960483   -2.10533647488270    1.98879272853027
O           0.87045695743792   -1.16992562620860   -1.65297903816120
H           1.35918475605381   -0.52398212360011   -1.11391772714675
H           0.58475676377614   -1.84133367571967   -1.02777132502112
O          -1.33766576241420    0.05630117636484   -2.52834349644568
H          -1.71315459307211   -0.49889529651568   -3.21310251397804
H          -0.47112854522867   -0.34876116627700   -2.29271430568112
O          -2.37080100063607    0.46354418831859   -0.10680487655405
H          -3.16948843755233    0.98503095249352   -0.20435638318978
H          -2.04009686016120    0.29000447595757   -1.01868069561671
O          -0.37669050066325    1.90489284827481    0.84348224299240
H           0.31189631953315    1.78494012808468    0.17612035662420
H          -1.15724936746633    1.36613846549227    0.54345588470768
H           0.28408041516057    1.16583890551815    1.90680253327777
