    19
        -40.91893415
S           1.10828719325775   -0.15166799597699    1.32645223355655
O           1.56935754113869   -0.39334910534522   -0.02661347280161
O           1.31159645388784    1.19017870411424    1.81099807876043
O          -0.28292633761552   -0.59729586275396    1.49781255721118
O           1.97419917162024   -1.10172319650269    2.25734686108327
H           1.93422056687475   -0.66616517452753    3.10334712128000
O          -2.05511466477726    1.41895214703383   -0.94428291048689
H          -2.57075361083912    1.87422161477657   -0.27577984503974
H          -1.12107140145433    1.74825367128364   -0.84473029793884
O           0.43830184763665    2.09798001985082   -0.50695530653424
H           1.03767453716245    1.55703885237421   -1.02993505846969
H           0.72897110314449    1.95226810081343    0.41649071161109
O           0.28924023812361   -1.71285765543577   -1.85196746992026
H           0.58996675007743   -2.62330125140675   -1.83593564591311
H           0.88103721781737   -1.21248300824612   -1.23250530071443
O          -1.71732593032248   -1.03795755506543   -0.45209260595701
H          -1.02402337200801   -1.37142795235984   -1.12969932145597
H          -1.13954901321009   -0.90559259531604    0.43886195784485
H          -1.95208830052442   -0.06507173730654   -0.72081227611876
