    19
        -40.91243056
S           1.10780473198957   -0.43463115876758    1.13679845578665
O           1.80346867201970    0.41761785527984    0.08830304521290
O          -0.16719776288650    0.15360696979234    1.47111822019829
O           1.11580464032112   -1.80918470376257    0.78674937956250
O           2.02579501003069   -0.27682710590202    2.40995306290419
H           1.86407216345516    0.57615475825714    2.80988262604966
O          -0.85107890674670    1.39244831649724   -2.31067601485212
H          -1.79649177031261    1.37658172225933   -2.46977448007997
H          -0.58355812229777    0.46028972181400   -2.15820408688010
O          -0.31051834336206   -1.10942171303645   -1.53228183029648
H           0.49579922326694   -1.45354880105415   -1.13903242102152
H          -1.03194580478405   -1.41387566097434   -0.94555927893769
O          -1.82688024828227   -1.83094638574401    0.59135744292821
H          -1.42091131833683   -1.07849836732664    1.04874769032872
H          -1.31730261908471   -2.60070915887295    0.85701128489269
O           0.21870238999147    2.30959104390508   -0.11121341402431
H           1.22964911964981    1.29814498515788   -0.06552733959295
H          -0.18614260053007    2.12959469068630   -1.00379306981354
H          -0.36906844411415    1.89361299178243    0.53614073764392
