    19
        -40.90846350
S           1.02730120835450   -0.84972535741100   -0.82794529127422
O           2.09092730519707   -0.13082398891345   -0.19268865165528
O           0.42546583643384   -1.86267794549961    0.14807982519986
O           0.02169983650914   -0.05818383770371   -1.46007713303902
O           1.64855950152699   -1.79335917492652   -1.90837020470068
H           2.40531964840340   -2.21830102894143   -1.51036999932008
O          -0.39109235606017    2.53834548113981   -0.66896843425580
H          -0.37850648963260    1.65387757190276   -1.06910912876850
H          -0.03257154251472    3.14100570514132   -1.32230536533564
O          -2.52268046118610   -1.04623986354513   -0.69601855903955
H          -2.42023971646956   -0.75026757582125    0.21251783320868
H          -1.76501466405038   -0.69437364270753   -1.17580271167401
O           0.69954179536184    1.44427439081097    1.54429694021958
H           1.40642232603077    1.00226059508534    1.04638412703225
H           0.28029927717464    2.05328486283852    0.90530664628889
O          -0.95561684460257   -0.50951832577900    1.75760239991183
H          -0.38092354011605    0.32191978460075    1.76215775715801
H          -0.21037744486022   -1.38426624861668    0.80285298209077
H          -0.94851368511269   -0.85723141140746    2.65245695791285
