    19
        -40.92246917
S           0.69920555772156    0.15393354287380    0.79664503941977
O          -0.14746440999890    1.30661162377949    0.86020357914320
O           1.78469887896485    0.24059016689897   -0.15238152732138
O           1.26817340665329   -0.13736000931722    2.20235780938087
O          -0.11968005887216   -1.10025139606994    0.50188342299454
H          -0.83319356738828   -0.95413832754731   -0.32146409914427
O           0.18134832025822    1.13803665137569   -2.13042108364155
H          -0.08375821421659    2.00062402432974   -1.80150170427490
H           0.92354355122723    0.85503123477023   -1.56924410211569
O          -2.74113774635730    1.31463967106226    0.15203312372923
H          -1.83375104117885    1.47637410247729    0.47338444489740
H          -3.28589286656339    1.18196506895476    0.92958425634576
O          -1.66689649862574   -0.58952773900811   -1.34677959663748
H          -1.06093375006071   -0.01948489616991   -1.87961161000652
H          -2.28252010480825    0.04194785192707   -0.90430921364105
O           2.64071642786534   -2.01466588073002    1.03858892903419
H           1.99297612913979   -2.66132264061051    0.74458275731239
H           2.68253226029062   -1.33254610018636    0.34869814548571
H           1.88203371594910   -0.90045694880806    2.05775140904189
