    19
        -40.91188296
S           0.97123613894152    0.58270440502081    1.32621264109598
O           1.23075166307808   -0.74724404070083    0.61280888427150
O           1.90491852674223    1.56154909862056    0.87391039977580
O          -0.41968059804493    0.91235151057995    1.27316453422846
O           1.29468259768868    0.22062984167407    2.82165303111800
H           2.23850839675875    0.29555247328670    2.95028446839854
O          -0.60244296617073    1.16422256074871   -1.50486722327461
H          -1.23608724253570    0.43821413197315   -1.70702718770048
H          -0.69233562071127    1.32996855247537   -0.55684870638280
O          -1.53858928314720   -1.54019399244154    0.88864637172027
H          -0.70249726147522   -2.00985902640727    0.82713931053257
H          -1.30916250209602   -0.63755989407798    1.16477851315862
O          -2.30097246642023   -0.90707796135849   -1.62335422447098
H          -3.24200308586981   -0.72615897576586   -1.63638089363649
H          -2.09836052160596   -1.25501983012240   -0.72822310501176
O           1.79237956102028    0.22082978422672   -1.58004600041398
H           2.31572385248732    0.96768444516790   -1.26551513732405
H           1.52275717327439   -0.46566309827012   -0.38556121277503
H           0.87117361808017    0.59507000536540   -1.75077446331113
