    19
        -40.91370583
S           0.00130035499999   -1.07015945603028   -0.02766397711430
O          -0.06006013574747   -0.41778239800271    1.38394676889055
O          -0.98459239682591   -0.44572969934387   -0.85961384967822
O           1.33543064236116   -1.06679354100164   -0.53159886911401
O          -0.40615365685867   -2.52540358418835    0.29317792747360
H          -1.24741828415420   -2.46089310644380    0.80445230803972
O          -0.01624768018299    2.02073753283721   -1.42904866717511
H           0.81679084477040    1.77243226682440   -1.87912189965506
H          -0.54585907159046    1.20477193330299   -1.41022757399631
O           2.17349142483299    0.75194037335738   -2.36952212750411
H           2.16378145112153    0.28575877500609   -3.20737977987367
H           2.04023472491583    0.07638396636647   -1.68115568360544
O          -2.27762833808050   -1.89172692005701    2.00131265266444
H          -1.71057084963255   -1.11415593102015    2.10395216989403
H          -2.22920801028909   -2.39194141532869    2.82018460517157
O           0.50194737758828    2.00243775330136    1.08500140162644
H           0.36627938142772    2.11749885241338    0.08738699939704
H          -0.14562967096847    2.57074895590433    1.50875526503295
H           0.22411189146656    0.58187565276468    1.30716232925227
