    19
        -40.92079075
S           1.18470736200404    0.41200380396064   -0.79700978600310
O           1.33566431320376    0.60469097865037    0.64667131085985
O           0.26517063496432   -0.67948898782630   -1.08663818984121
O           0.88405789638268    1.63830526593016   -1.48965251562364
O           2.59298520948280   -0.08863719142103   -1.31777753178342
H           3.14829740664699    0.67911647862720   -1.22517365256234
O           0.35844123816925   -2.70181507095075    0.58141144633234
H           0.45584486304929   -2.05616633544423   -0.15791871333657
H          -0.26866857204793   -3.36441182331877    0.28478232081285
O          -1.30941075378616    2.44867969016639   -0.25833479563753
H          -0.45456572127422    2.24102214939169   -0.69416536206051
H          -1.75445862683159    3.07761578010558   -0.82953158369166
O          -1.98447791137488   -0.05746083010355    0.20070767856612
H          -1.35823283447276   -0.36735214312891   -0.48457741209829
H          -1.94733513791699    0.92489608333261    0.12595837201525
O          -0.33205261801054   -0.66251537633173    1.96574819663846
H           0.42567651160323   -0.06575951761357    1.54064004958839
H          -1.16508315213787   -0.39393786797761    1.35580261557596
H          -0.07656007767249   -1.58878509621883    1.63905755219523
