    19
        -40.91893409
S           0.40365554724067   -0.86248129157889    1.45330376820317
O          -0.84715029174522   -1.29717995080731    2.02137306290694
O           0.65934014505934   -1.47731589418935    0.14167116360919
O           0.59008578942673    0.57423963306431    1.40009536825168
O           1.54600243632389   -1.41364746989823    2.40808443340873
H           1.18141087554072   -2.23355891609840    2.72742542735670
O          -2.05412567518073    0.53149291921931    0.54941536194322
H          -1.49435796999249    1.25160182146180    0.85521158933151
H          -1.79560137102230   -0.22716226780359    1.11104451302725
O          -1.74484802660839    0.13136837995430   -2.02467168411575
H          -2.19700491043147   -0.69230352893868   -2.21761693980180
H          -1.94154432453872    0.33748446372857   -1.07153655895937
O           1.56236485549995    1.91150928529613   -0.59411020056237
H           1.20023321928154    1.50832375650390    0.23698791011246
H           2.50084195083245    2.03999653813302   -0.44459869833843
O           0.76910386803370   -0.11386463089972   -1.90266498557965
H           0.78066605917572   -0.75999782503838   -1.04864867546639
H          -0.24404600397324    0.01998122484174   -2.07219515778997
H           1.12497383709968    0.77151375304747   -1.52856970753444
