    19
        -40.91833205
S          -1.05743077465395    1.19662278463374    0.65355473191947
O          -1.69879515946241    1.81501131314099   -0.48005066774308
O          -1.53906780857752   -0.17576336832357    0.87562107574988
O           0.39118208949898    1.24753740524776    0.62739005738701
O          -1.50103061964229    2.01638925668001    1.93431782885075
H          -2.42979562929533    2.16705076755358    1.78659632250829
O           0.46144256322121   -1.63735757981628   -1.85962213834897
H          -0.19959763787731   -2.04261584210589   -2.42388666391696
H           0.37636918533329   -0.65303074587532   -1.99930760456951
O           1.95285462170703   -0.55937150036365    1.63284757030143
H           1.41391045689899    0.23398559555115    1.38217542073337
H           2.78647317400795   -0.48081886552260    1.16445644328465
O           0.16939624463462    0.95037854305305   -2.11781591750731
H          -0.63858377073465    1.28386085035568   -1.67258814209281
H           0.88660021681360    1.36811408634687   -1.63235507024383
O           0.10214592835739   -1.98440804777186    0.63070665448760
H           0.27562306419137   -1.93228039004392   -0.38350954286551
H           0.91605616925416   -1.56619787892081    1.09128360342824
H          -0.66775232107901   -1.24710639893710    0.79018603860119
