    19
        -40.91898071
S          -0.18455928840775    1.10653774581458   -1.18533015375662
O          -1.56089868146791    1.32929041802966   -1.54253270830917
O           0.11054389414848    1.51966968843470    0.19773181406259
O           0.27675517211769   -0.25433415856256   -1.40914408681639
O           0.70482311799045    2.03693029813706   -2.10729466426595
H           0.16479551832319    2.80179333799922   -2.28776301350496
O           2.32757250519555   -0.21572236261567    0.25904316610152
H           2.23371977347579    0.69957543648177    0.54012373760241
H           1.70272628770244   -0.30716277380531   -0.49007336427323
O          -2.07244933836868   -1.06776687114688   -0.48650863449366
H          -2.43069900920223   -0.26155409596513   -0.89524978186424
H          -1.22474753084580   -1.17699318616186   -0.95667566426485
O           0.95208433006067   -1.66240882897155    1.93936132928655
H           1.60295862521859   -1.15571535340299    1.37436909358798
H           0.85175839063122   -2.52441108148177    1.53018736466481
O          -1.03903210570271   -0.14030825335335    1.63528009467857
H          -0.26011632618922   -0.79463914794880    1.87104865581485
H          -0.56752495470873    0.65941499236768    1.13009562659019
H          -1.58771035991867   -0.59219582363619    0.88333117922202
