    19
        -40.91289223
S           1.55980912452551    1.22365371513159   -1.10320826714998
O           2.35456187944966    0.77833558705186    0.11137853277175
O           2.37490399400019    1.95929758616073   -1.99903022570366
O           0.78055376291412    0.13361325509009   -1.61401012049926
O           0.50006970293120    2.25495975567194   -0.48090308026063
H           0.93516907631147    3.10202068182243   -0.53575386693219
O          -0.23498191297170   -2.07149785375986   -0.61766521717431
H           0.09272586226677   -1.26414326758945   -1.07461218606486
H          -0.02604589783649   -2.80774605859172   -1.19491800113769
O          -1.21296949279755    0.90695112928030    1.39959569871384
H          -1.86746522899170    0.32820426796971    0.95535422233524
H          -0.91001776729150    1.53335999940349    0.73407178161057
O          -2.65932375909389   -1.01031219130524    0.15126796008963
H          -1.87590024540382   -1.47029692585469   -0.20020884038441
H          -3.09925622869553   -1.62371980075652    0.74226822224518
O           0.87453399739959   -0.66823733962383    1.48231662106199
H           0.55960815123708   -1.37251583208176    0.88969031956231
H           1.76673738333557    0.13984733597862    0.72994394878679
H           0.08728759883808   -0.07177405394660    1.62442250810768
