    19
        -40.91974998
S          -0.44829267351869   -0.25915266155611   -0.66592717059394
O           0.92237253967162    0.13538714531527   -0.83867704035703
O          -0.91851917549943   -0.10584351502562    0.69556825272034
O          -1.37838501229360    0.50072393391199   -1.61512263153972
O          -0.64288536034328   -1.70495726493445   -1.12772160269132
H           0.25846744194210   -2.18082724777994   -0.99828223059704
O           0.45850496036684    2.22140889524218    0.91826765460365
H           1.14730887392859    1.82986990159493    0.36702448374520
H          -0.06755839160822    1.46223494856702    1.21466450701224
O           1.67417882313749   -2.50800478263751   -0.53350835321634
H           2.06897144374444   -1.65722217851384   -0.76381353235512
H           1.50874873557160   -2.46732300714662    0.43333013630240
O           0.65646952400857   -1.94652691741786    1.88069134443193
H           0.12258835530342   -2.56605116282472    2.38226609011135
H           0.05465488199013   -1.23930377910814    1.58451289424675
O          -1.31190835640667    2.93985210252447   -0.88925490326578
H          -2.12231064931657    3.17768442565949   -0.43221351098635
H          -0.60391960704260    2.86621827133884   -0.19721240009456
H          -1.37848635353933    1.50183289258851   -1.41459200749375
