    19
        -40.91735102
S           1.24875586869838   -0.55920775467758    0.12408039266474
O           0.79778166047704   -0.07377504642655    1.40876400750483
O           2.65055056515893   -0.78771364459676    0.01550587843297
O           0.44716006671860   -1.73993923633683   -0.33203096271513
O           0.83153953270278    0.55411969703149   -0.93952932303421
H           1.39144591508584    1.31152651853358   -0.65498771911575
O          -1.78601417399870    0.12802034738138    1.90710834899958
H          -1.95739881167251   -0.26023174405312    2.76708814552595
H          -0.80948429480150    0.14858419018299    1.80349302460453
O          -1.61913937573465    0.37102261735071   -2.24769321921400
H          -1.46961519044630   -0.01079596307966   -3.11493137535261
H          -0.74843788389492    0.60407587404123   -1.88997196426411
O           2.56410312194920    1.89574059819226    0.46338804726252
H           3.15117358345874    1.13455051387775    0.35386315977758
H           2.10718032842553    1.74833145457403    1.29874757625409
O          -1.97507379014733   -1.34136321942820   -0.24971879531646
H          -2.07345682828983   -0.71877037632534   -1.00928204439305
H          -0.67043073116411   -1.61057226092328   -0.27803348147066
H          -2.08063957256751   -0.79360255537933    0.57414031369384
