    19
        -40.90792042
S           1.72006812128644   -1.07901201046314   -0.68389573889367
O           0.43370675529153   -1.03868937474833   -1.30930370709912
O           2.62698042091675   -2.11582523019282   -1.01189530551830
O           2.38675313702229    0.29200076108756   -0.77849167009553
O           1.43580069919003   -1.20317974411133    0.89077346452284
H           2.23105193063971   -1.58681471452705    1.25398457626465
O          -2.10580249339597   -0.61027879749474   -0.33040311911527
H          -1.31397513478554   -0.90815904175203   -0.80543963385657
H          -2.02967040233416   -0.98857207419226    0.56265331833716
O          -1.07083054484561   -0.71932980320218    2.20315450174080
H          -1.07629648533595    0.24368303508799    2.18645968244124
H          -0.19874023644007   -0.98313844584208    1.88853848521593
O          -1.31806126722073    1.75495656890918    0.50102600831076
H          -1.72086440121451    0.90632581077415    0.16636544046344
H          -2.00245746451221    2.42307558599542    0.44042831726458
O           0.45333862411559    1.73054844201565   -1.46605714481961
H           0.02440364278960    1.04629503901561   -1.99285870438602
H          -0.13042288755583    1.86031230862383   -0.67508231995794
H           1.65501800637055    0.97580170501151   -1.03995643083709
