    19
        -40.92343621
S           0.37438030376451    0.34586058568085   -1.60791614268788
O           1.25296503062699   -0.78705429370722   -1.40907677789744
O          -1.00589927833324   -0.07112840820702   -1.85985842836230
O           0.45446590640748    1.31214499558980   -0.52392331533225
O           0.85302784077260    1.09857872405329   -2.90649368117531
H           0.77916286963939    0.42673211680384   -3.57709191030245
O           1.36450099732818    0.36725359754543    1.78432771480968
H           2.31381334577722    0.43051555251500    1.89790419177005
H           1.16405948904468    0.77381616711739    0.91242650630801
O          -1.38931416729100    1.30199444994717    1.40559374262355
H          -0.82455834946466    1.56617984433414    0.64969774144705
H          -0.78018862682323    1.17777976723539    2.14176832493052
O           0.35038576758736   -1.90712262610947    0.77663777565769
H           0.76617292953834   -1.70203663794365   -0.09446344342427
H           0.75068102233560   -1.25160427690291    1.38539302121255
O          -1.89193154348842   -0.93201801868003    0.29410819909587
H          -1.65942985535480   -0.61854814459393   -0.67661000104137
H          -1.01229060735924   -1.47183072457097    0.57130261643930
H          -1.86000308471368   -0.05951267009965    0.83627385592880
