    19
        -40.89942946
S          -1.58280434767479    2.41554916563004   -0.57954406001424
O          -1.24055122563121    2.95215443096065   -1.87742971274124
O          -2.97561908635765    1.92707925624172   -0.53729375946025
O          -0.66693937770153    1.40388850874796   -0.10043292086584
O          -1.52566735105728    3.61285200563316    0.44972335666248
H          -1.94695800739569    4.33526262462776   -0.00830934631411
O           8.85998914709136   -5.47882519018980    4.58815942243021
H           9.79229858524064   -5.47723423616726    4.81360825045463
H           8.36877998440169   -5.42558329617882    5.41027674024410
O          -0.93798223242840    0.58306499097372   -2.93285568531262
H          -0.12956638590170    0.28997727227840   -2.50292180969008
H          -1.01855142021655    1.54234341753311   -2.71131664036602
O          -1.47609492788622   -1.03403074421054    0.35135756190776
H          -1.86355229928786   -1.07920941627599    1.22759870812574
H          -1.03492263603499   -0.15032367836914    0.28728212463948
O          -2.91804485913205   -0.27929608287957   -1.60024140760575
H          -2.43704395696847   -0.77786235795935   -0.84592724428569
H          -3.08896588535813    0.69615585566819   -1.14999149779625
H          -2.17780371816816   -0.05596253372588   -2.28174209227850
