    19
        -40.91692929
S           0.52003872645671   -0.03999222749804    1.37300679544034
O           0.88709996246837   -0.54857851666433    2.65018796949722
O          -0.84139257228227    0.43912540244116    1.26663126306110
O           1.50153803821222    0.97340692956598    0.86416345361247
O           0.64861286266027   -1.20885398252765    0.29731755941790
H           0.04690204076810   -1.88740299625494    0.67963509467503
O           1.07927605887539   -0.68334471670377   -2.41357500119814
H           1.08121254225199   -1.05583246839944   -1.51946674406950
H           0.24995213423995   -0.94308238304808   -2.82108948658765
O          -1.64018815324198    1.52313347224453   -0.99826783531481
H          -2.19861725191859    2.27677676013602   -0.79924193747261
H          -1.45060239088249    1.08783325766325   -0.13756296002380
O          -1.08470931864038   -2.28282891531249    1.91463610066397
H          -0.48372607702072   -2.08892142154721    2.64660892788993
H          -1.67063008075624   -1.51945615013725    1.85782212634297
O           0.95042145317650    1.77711087901507   -1.40171253835997
H          -0.03891357213495    1.82056860949591   -1.37485427784731
H           1.28452405366887    1.37804006290016   -0.13902433598933
H           1.15920153410018    0.98229841463116   -1.94521417373956
