    19
        -40.91392446
S          -1.17497559455429   -1.77914862448169   -0.67057464052525
O          -2.03946297271743   -0.63518503546624   -0.65792392677875
O          -1.74538434883846   -3.06930193201146   -0.79382885217788
O          -0.04256110696892   -1.59639261926281   -1.66361692172187
O          -0.41490742545337   -1.72672957122457    0.74475445061203
H          -0.02992520740936   -2.59338787205708    0.85025906434921
O          -1.19792261696743    1.77884195135104   -0.13884806746906
H          -1.61789990526313    0.90069989756755   -0.29779271813641
H          -1.83838681790953    2.43900588754939   -0.40859407447451
O           0.20801546074697    0.76296853023503    2.02700543419221
H          -0.31536487933112    1.32405009391548    1.43321875994245
H          -0.12820918040243   -0.13093869019044    1.89632073146161
O           2.46866809205694    0.53620579442586    0.62447776374048
H           1.72503568167935    0.61630915222001    1.26705909878230
H           3.09661840222078    1.22595655663123    0.84354919251685
O           0.89619545046308    0.69931041168676   -1.50182583745804
H           1.59740685335206    0.61334957415190   -0.80924320783615
H           0.35961864651420   -0.61264716117176   -1.64441804608451
H           0.19344145876158    1.24703367614616   -1.09997821294346
