    19
        -40.91587967
S           0.38062114584975   -1.35953295874598    0.44062926087641
O          -0.68665469950256   -1.87576599046567    1.22719236723725
O           1.18340231274095   -0.31800032170856    1.03371264364976
O           1.28989996264452   -2.53375216651467    0.00452825676070
O          -0.17159719314758   -0.82747713510495   -0.90129363548921
H           0.09327369287087    0.16412085336258   -1.00364336692501
O           0.57553531587962    1.57091940224467   -0.78413591122642
H           0.98829889537216    1.37054639465712    0.06912053692791
H          -0.28435910268985    2.00512319343514   -0.56050377762855
O          -2.70496329930875   -0.12188866878592    0.84184654358290
H          -3.23165353122376   -0.56038338275333    0.17047637891220
H          -2.02930969625698   -0.76810716754315    1.11431344232021
O          -1.77498573927615    2.31095063651058    0.15635321977153
H          -1.86741864696002    2.85601402953607    0.93946070107041
H          -2.16581798438104    1.43977934898871    0.38395319468834
O           2.97268339029346   -0.74202515449437   -0.92632690509415
H           2.69214049050300   -0.16726224693781   -1.64401375381831
H           2.68579979668361   -0.31944581091378   -0.10174921674104
H           2.05510487989948   -2.12381284476392   -0.45991996889993
