    19
        -40.92246923
S           0.83571666378360   -0.44219942870572    0.50170267184671
O          -0.35805453622267   -1.15308111553553   -0.13109978979396
O           1.72323819730857    0.00824337807637   -0.54510152538384
O           0.39601318777197    0.57584369270846    1.40704443165413
O           1.51716670139848   -1.57417115685660    1.30100375297838
H           1.84114122276689   -2.19706438465944    0.60293129132019
O           2.05135624543786   -2.61958502974441   -1.01894913073675
H           1.20006810836923   -2.86906358552022   -1.38950920175633
H           2.18011021079221   -1.68079366427761   -1.23143869077896
O           0.15675811187759    2.11665171265370   -1.16997197922708
H           0.86258436566066    1.45168975655931   -1.09577308801542
H           0.22140238176485    2.65875300370685   -0.37976438395802
O          -2.15860336679173    1.38143578071089    1.64200855652217
H          -2.57941549095531    0.90603838189899    2.36027255484576
H          -1.20368574601474    1.18915978852956    1.70396324590530
O          -1.96632120859748    0.56104975875978   -0.87155808268183
H          -1.12126212951046   -0.45147203766004   -0.49569108852431
H          -2.28291696882004    0.90494353614376   -0.00267183495592
H          -1.31529594001406    1.23362162321426   -1.18739769925990
