    19
        -40.92218952
S           0.63679386904161    0.50816192519668    0.82220548105629
O           0.67304717536339    1.23783000790274   -0.44109300586735
O          -0.73822585801960    0.27203481378647    1.25063535558929
O           1.39106207800485   -0.74241771125702    0.73747970916788
O           1.34291530101272    1.37428886038197    1.90575401650585
H           0.79496234550936    2.18656832907105    1.91148553719763
O          -1.82310572041579   -1.83777578891681    0.20443512890044
H          -1.51372808124825   -0.98541217428116    0.61421307232068
H          -2.05973788582173   -2.41314948177753    0.93505778968129
O          -0.60415003286429    3.00328092814691    1.21360454326927
H          -1.18275982074658    2.24858392821521    1.38620386433658
H          -0.28788755825782    2.86981942503539    0.31029539423097
O           0.47321867497618   -0.27188409602074   -2.53970731168813
H           1.27646965994597   -0.13902960314007   -3.04772070861395
H           0.50334977319130    0.39154763877022   -1.79869466224247
O           0.38479219833382   -2.23327052893999   -0.95333537233267
H           0.39283282847979   -1.55325476352304   -1.73372763300316
H           0.91800887869710   -1.70062002873226   -0.20373200403204
H          -0.57785784518877   -2.21530165990996   -0.57335919448838
