    19
        -40.92174068
S          -0.30452608000366    0.15144240284613   -0.82766711679526
O          -0.67331271279405   -1.24848143351520   -0.81723558360075
O          -0.96017201720712    0.87357448916001    0.33498189290620
O           1.10794890104797    0.39572944423411   -0.84150130500168
O          -0.93806909900723    0.81857165847460   -2.06775053365647
H          -1.83500530991811    0.40659781940538   -2.16810054549841
O           1.12327029145402   -1.80070456711697    1.13049432289664
H           0.44065712116683   -1.83375169596088    0.44010515916602
H           1.93825883537291   -1.56058776021896    0.68182821514025
O          -2.97976110552834   -0.78440923142472   -2.03160188999448
H          -2.34110251357057   -1.25170294732688   -1.46187516357466
H          -3.12001298928057   -1.33599823909652   -2.80540925221264
O           2.37050636132684    1.68966982540687    1.15254757627571
H           2.37769738237819    2.62923830593930    0.96287804620568
H           2.06045935107703    1.24605091136868    0.34029916851033
O           0.37097141705228    0.42554756407583    2.36738540287828
H           0.64280144701614   -0.50034850616318    2.16298264128709
H           1.16550917450365    0.97295875857843    2.16862091388919
H          -0.44611847623266    0.70660318046292    1.27901804100099
