    19
        -40.91416445
S           1.05312768849005    0.68968592679540   -1.14726436153779
O           1.79881197843137    1.53346577409913   -0.27319109767422
O           1.49385788435928   -0.75845701790000   -0.98086276386763
O          -0.37658655525085    0.77351584792367   -1.11993032336166
O           1.49284056192563    1.03757191628449   -2.62424071496256
H           2.40494247719752    1.31990027424415   -2.59567523657174
O          -1.74549017246442    1.86170026504751    1.00000646069237
H          -1.34786885524988    1.63022802690915    0.14523809928862
H          -2.54456602383517    1.33674910451142    1.08085530942042
O           0.43287341952749    0.48401957036301    1.87803358887655
H          -0.32373885106509    1.09922208362770    1.82632010954000
H           1.10462348655174    0.86315917602805    1.29735796923643
O          -0.79037509853358   -1.84695121267330    1.50117996791689
H          -0.30994615942831   -2.51104851639266    1.99795018294963
H          -0.32983266480702   -0.99099568616849    1.67705180680989
O          -0.67544350597432   -1.95082531371865   -1.10259183309105
H          -1.15923557965717   -1.15542222383998   -1.35923613778508
H           0.63972403494171   -1.37352087200181   -1.08213657911655
H          -0.81771805485709   -2.04199712323342   -0.11886445675001
