    19
        -40.91907721
S          -0.48483598139801    1.32240903117981    0.89281260027689
O          -1.21977322699013    0.98684773660635   -0.30510139579212
O          -1.13036692286165    0.92001154145087    2.12040337068781
O           0.90239484630064    0.81749692307364    0.81538076731348
O          -0.35188805371025    2.89938071506316    0.92972495587566
H          -0.20958565926553    3.11702611703441    1.84733128011310
O           0.98326693224754   -1.70670348093266   -1.90944061602678
H           1.82758601111160   -1.98425214799862   -2.26943086500836
H           0.91464656273680   -0.71906685736714   -2.06013263573137
O          -1.77550407821869   -1.36755476982822    1.01236507344705
H          -2.07605275933255   -0.93383101873928    0.20306553181593
H          -1.69764066408381   -0.62678260353167    1.65441945808132
O           0.86367094203356    0.89719361864064   -1.92157693350518
H           1.39991253590820    1.11158543953016   -1.14722299659808
H          -0.04891065894450    1.02526592517517   -1.59474594994642
O           0.70078534405348   -1.64619161625073    0.60102327649763
H          -0.32009361947433   -1.70991146068299    0.79145204955915
H           0.82747608740569   -1.78157772269333   -0.42225522622817
H           0.89491234248485   -0.62134537965104    0.76192824527180
