    19
        -40.91003811
S           0.34752132747131   -0.79225806971348    1.21715845015546
O          -1.00356295831081   -1.08192732014436    0.84363135030098
O           1.29111888056929   -1.86114615104826    0.67305274809767
O           0.82304701807312    0.52294284417156    0.92913884626070
O           0.47955264495293   -1.01370251760181    2.76543152724206
H          -0.04592381737722   -1.78241928145332    2.97667847381625
O          -1.07132162152351   -0.46120595627694   -1.81220604731373
H          -0.88447599064619    0.50591732276536   -1.80937971116407
H          -1.33788902517707   -0.67759340105875   -0.90464011130374
O          -0.24451615812747    2.03890007766312   -1.35021095438379
H           0.57044227838422    1.74905733797855   -0.92717815726833
H          -0.79637090915844    2.37129461709116   -0.62353855462527
O          -1.04544235451679    2.48959739085355    1.27233658968867
H          -0.66946040671916    3.20137181013311    1.79360568893932
H          -0.40114190073124    1.76295776124932    1.28779348654608
O           1.21142204266864   -1.60709080856229   -1.79938234642272
H           1.13058115960466   -2.45580103298053   -2.24144038079614
H           0.31639272617106   -1.13517333387279   -1.91726271202348
H           1.33002706432049   -1.77372126926405   -0.37358818573870
