    19
        -40.91318689
S          -1.20345557587408   -1.09900289861105   -1.45146574258133
O          -0.84485621070786   -1.99979713684567   -0.39494415430411
O          -1.84003412508201   -1.61232478924149   -2.60881831043102
O          -1.93410845947287    0.10824217440512   -0.90873771636647
O           0.19059679113181   -0.45961368586171   -1.95409012608683
H           0.04639803565798   -0.31976825724014   -2.88629169516454
O           0.55894838518007   -1.29509202492985    1.69232698671345
H           0.53233140353480   -1.95743279135763    2.38458652028403
H           0.08567478421616   -1.67804802178508    0.91802199635417
O           0.70905978074091    2.53005907969123    0.64763706623277
H           0.63905188013633    3.08704179938597   -0.12831117456439
H           1.36824250391434    1.82851427802053    0.43985734669984
O           2.09610514669473    0.32863933080005    0.02654750913507
H           1.83432572970109   -0.26131085010407    0.74895641408691
H           1.63403993105455    0.00206001646074   -0.75462533953137
O          -1.14456615408806    0.78232001586989    1.33209486047035
H          -0.55011797463085    1.55576003892908    1.15851021694457
H          -1.62397082931792    0.39206660835133    0.09067199046997
H          -0.55366505277375    0.06768711406853    1.64807336162498
