    19
        -40.90997413
S           1.01805783150908    0.53024439030514   -1.03621077646669
O           0.50685773026483    1.35325233603802    0.13705412489017
O           2.41217685360437    0.23862428072493   -0.88498690353073
O           0.16458257846149   -0.59459791155035   -1.27737106700782
O           0.84714825322962    1.52496690007365   -2.23220221204858
H           1.52916556993496    2.18815045108308   -2.15003412658559
O          -2.38535811910318    1.80196492444246   -0.03821440341774
H          -1.45039507998577    2.01288470301350    0.02816146668948
H          -2.46077110765001    0.86445189100284    0.17791818713955
O          -1.94397945504292   -1.02974535315977    0.29509095193733
H          -1.25950845454403   -0.92325469791098   -0.39615756215649
H          -2.61005758862732   -1.62158422684760   -0.05828062871989
O           1.79059407620190   -1.80225595502289    0.75331970506476
H           1.34961359875028   -2.36216335381045    0.10918874326987
H           2.28111145950981   -1.14264037566173    0.23377506982487
O           0.03127360590087   -0.23983239252547    1.95127487054351
H          -0.82926593059396   -0.59337492135717    1.65636322298220
H           0.70998276382851   -0.92263356146813    1.72157003752902
H           0.29877142434546    0.71754286261561    1.00974129005512
