    19
        -40.91069706
S          -0.64194387778419   -0.66051616587433    1.69295945297352
O          -0.99605716212210    0.69034553303750    1.36708640483548
O          -0.88117273478889   -1.64338140064568    0.69070833244345
O           0.79451577788561   -0.71670462730727    2.21787239876437
O          -1.44751233771770   -1.06903284044343    2.97823460224023
H          -1.42821051525536   -0.30647359106448    3.55201708795572
O           0.72131613542059    1.88949930123292   -0.38181493052226
H          -0.00875058586101    1.68232592881182    0.22412421568441
H           0.38008134723311    1.68660675668597   -1.28258259710354
O          -1.34384708024047   -1.30826112388869   -1.95813344549974
H          -2.30099871545673   -1.34994205526059   -1.99537339606860
H          -1.10333857815445   -1.49978580264355   -1.03436762612533
O          -0.17701685436207    0.99340424501202   -2.73964830296613
H          -0.63832591623368    0.16781639158533   -2.47924316237681
H           0.52163797290024    0.72516601691605   -3.33865876832204
O           2.28343058717198    0.01003283346150    0.35330835828941
H           1.72614200333003    0.78032391486047   -0.01323923719491
H           3.08763655360800    0.40144118206195    0.70263897514708
H           1.45241398045308   -0.47286448651950    1.44411165784657
