    19
        -40.92071444
S           0.33351601295615   -1.38409460924204   -0.41110411519620
O          -0.43708560588267   -1.95072415394361   -1.49393708083969
O           1.06172380480404   -0.17225812191266   -0.83677918754758
O          -0.43412795897620   -1.12014017108046    0.78386599198577
O           1.44654657328258   -2.44217122029173   -0.03967583288845
H           1.62625039504340   -2.88438936070353   -0.86453659663325
O           2.13969906455810    1.21637735540291    1.18983572583597
H           1.88769709642495    0.62252471911820    0.45498191942370
H           2.81652955511848    1.80288682026702    0.84877018008217
O          -0.46585080894952    1.32900182931544    1.73740219981909
H           0.49875701075351    1.48345407200978    1.82004436629357
H          -0.53678559214085    0.35007866861542    1.65556292597775
O          -0.75958187969190    1.55939064202273   -0.70978634537547
H           0.05082075934190    0.96150414156999   -0.90965761983811
H          -0.70991005205973    1.61446346562904    0.38570206565379
O          -2.43675214471305   -0.31215984747548   -1.08224439712894
H          -2.73075162095635   -0.61656199366774   -0.21859999681954
H          -1.55462061486898    0.93920747012040   -0.92024995890325
H          -1.79607400404321   -0.99638969571955   -1.38959422390669
