    19
        -40.92343589
S           0.24547581594254   -1.61423271529770    0.42383977684448
O          -0.04795912529602   -1.07687039306565    1.73553437856221
O          -0.97107091973095   -1.84570583388295   -0.35598916663425
O           1.20757185405603   -0.80595777331332   -0.30843186980307
O           0.91733045960192   -3.02475106517068    0.62658539795839
H           0.25334268544644   -3.50526470717124    1.11109567058023
O           1.40920746794752    1.72235949884883    0.47441046674786
H           1.45987132607576    0.76432377262087    0.26114886126710
H           2.06669882523986    1.88110532978157    1.15303082017692
O           0.35657442055406    0.93302953858292   -2.14509407809823
H           0.79122007716179    0.17486547755378   -1.70185579043649
H           0.75567842310464    1.71617806091332   -1.75028205996719
O          -1.12444720948834    1.25405987454022    1.23475130644568
H          -0.84482951644359    0.38932019449845    1.61974309151663
H          -0.27699817772868    1.70356691208597    1.03367590244704
O          -1.84521709410052    0.39145264268819   -0.98902244064324
H          -1.66887849269007    0.85440399969644   -0.04136725973567
H          -1.07023859760464    0.69656846060796   -1.59134773832064
H          -1.61333221220551   -0.60845127437848   -0.79042526879040
