    19
        -40.91814052
S           0.44860550956179    1.42512482239230    0.93593921539844
O           0.28880765325421    2.67541188035546    0.25372499749582
O          -0.77136039076589    0.63716224658964    1.08371692219990
O           1.52689067528409    0.59709988673585    0.38090960428379
O           0.90043164966204    1.76861937569498    2.42325295063030
H           1.29311245897402    2.63221807761655    2.33714355258854
O          -0.76286296177031   -1.94149221860397    1.32833564958667
H          -0.53813471650339   -2.16228970285588    2.23402220673724
H          -0.89088620936372   -0.95730019908546    1.30596513343230
O          -1.16111250181266    1.17397366091451   -1.49819817577601
H          -1.33692435590090    0.92812317006117   -0.57452388818546
H          -0.62498007203901    1.97246856191242   -1.41010880208861
O          -0.23423197129690   -1.08184471628015   -2.46954437302932
H          -1.02356014755941   -1.60071242761269   -2.63774367719871
H          -0.54822186259651   -0.17305962164374   -2.22013770703247
O           1.08985476158179   -1.69485804734885   -0.39446095658240
H           0.36729342548066   -1.96266275397966    0.27942305683953
H           0.60939540372431   -1.52428517529351   -1.29295214483364
H           1.36788364209536   -0.71169681955886   -0.06476354447427
