    19
        -40.91857441
S          -0.36489014452443    1.02819306359871   -0.16606343676536
O           0.02551021002681    1.14670224462526    1.30834301524284
O           0.69862097197725    0.37161307631326   -0.89800587439447
O          -1.65070922685865    0.42782838164875   -0.31178614247161
O          -0.42808943032204    2.50301696048305   -0.61239802628982
H           0.51716801940937    2.79330142102908   -0.68042827189220
O           2.14810746260106    2.58949913564357   -0.92137740018467
H           1.97570483213253    1.63025730727339   -0.92335291426752
H           2.49855127219387    2.81425528804184   -1.78701858245860
O           0.21207927874384   -2.26174072122372   -1.40956948889343
H          -0.14962304813472   -2.26842466322364   -2.29754573271109
H           0.50014248429052   -1.34795301379435   -1.23814290227396
O          -1.61255030092501   -2.14831456614825    0.58504237327479
H          -0.97484121102063   -2.45819923379549   -0.08856582252691
H          -1.93382469630649   -1.29948386079899    0.24013317154498
O          -0.13170157068258   -1.09864861568501    2.42135118359518
H           0.01267253952395    0.22897928311129    1.79273322631642
H          -0.65436506737805   -1.02924286167925    3.22374362429363
H          -0.68796236476939   -1.62163863545453    1.76290800077523
