    19
        -40.92120613
S           0.91026648310406   -0.82811363330473   -0.62217939215174
O           1.32333190883762    0.54277799653686   -0.32028234237822
O           1.64421052111167   -1.81927812522684    0.11520020007222
O          -0.53663785581354   -0.96212466625764   -0.57149231681530
O           1.27370083182767   -1.04121183654240   -2.16296217841108
H           2.15958286821264   -1.39100300045106   -2.14853549254736
O          -0.57890897802424    2.04259666935301    0.18012100674995
H          -1.04633450379951    1.87558250646598   -0.70445797915193
H           0.32310240194807    1.52066783290218    0.02856522118390
O           0.76287927022911   -0.81591230662632    2.42593948204207
H           0.94892170511914   -1.45411325711149    3.11790934468727
H           1.15431428189145   -1.17784015565964    1.60754334742661
O          -1.40448643511282    1.03466349842349   -2.02606335199372
H          -0.83585314219184    1.11149606414253   -2.79440135362416
H          -1.19056270403069    0.16655020046675   -1.61254762641768
O          -1.54217668697792    0.23231436417516    1.60197181610112
H          -1.07111081121010    1.40358545485240    0.87982403085402
H          -1.51378910658118   -0.39239265153544    0.85283960576756
H          -0.78045005841569   -0.04824495469195    2.15300796838479
