    19
        -40.92217201
S           1.13638178838348    0.65436523732115    0.43301357959062
O           0.38029089873776    0.92477853827499   -0.77678935183546
O           1.23413265520792    1.74141260577948    1.36418023734898
O           0.69815939194331   -0.60146844879518    1.05597551449655
O           2.61983877629897    0.35521544685469   -0.08603414414358
H           3.18853177520782    0.68531866309010    0.60333391128730
O          -2.23341064070295    0.39007895245467   -0.48644762826265
H          -1.48960122255670    0.84925824384717   -0.91442062557757
H          -2.18778338689897    0.71247871489819    0.44084767200119
O          -1.33909006622387    1.17084597719694    1.90754747489449
H          -1.20535211512517    0.46301922020192    2.54239675403503
H          -0.45882388415315    1.56186661873780    1.76598689442551
O           0.70100663845851   -1.23153921060384   -2.21856821312903
H           0.66859289900591   -0.31668073745787   -1.85527049025439
H           1.60687731448980   -1.52775911116170   -2.11060348864274
O          -0.97139199695988   -1.76131253424000   -0.35255913703550
H          -0.42462566907555   -1.75778731347262   -1.20743503481051
H          -0.27383796772337   -1.37217073530316    0.33875244276353
H          -1.64989518833312   -0.93992013763745   -0.44390638714666
