    19
        -40.92174078
S          -0.35247184495609    0.73045648938642   -0.38228536012358
O           0.71019827482960    0.58369586907596   -1.35445233730717
O          -1.18506158619024   -0.53687980556095   -0.32253104106162
O           0.08737515248280    1.10748711064624    0.92892628550345
O          -1.34942978376821    1.79074769742426   -0.89825877464029
H          -1.41441585824099    1.64592944687531   -1.87755543835813
O           2.21283229802822   -0.86729234218644    0.36680824574640
H           1.85986498047579   -0.37082381379424   -0.38989543926744
H           2.34208560031584   -0.22169450139023    1.06656883065799
O          -0.88595249956734    1.18399448182015   -3.37970947079693
H          -0.12413404992151    0.78127631705520   -2.92324271603948
H          -0.53780845334484    1.87863473736992   -3.94451350067361
O          -0.27444961334477   -0.46333339153463    3.08419589399153
H          -0.10505869726190    0.23056572223631    2.41900078950063
H          -1.11482712461695   -0.24894359461370    3.49253515818577
O           0.01662555114452   -2.18146390473894    1.07563877307944
H          -0.71175157909849   -1.32571033969586    0.25798264385919
H           0.93920929350856   -1.94536450661986    0.81885081224456
H          -0.11283006102856   -1.77128167121733    1.96193663611139
