    19
        -40.90530529
S          -1.79648801598374    0.04394576439948    0.30444496476175
O          -3.14896629467108   -0.25793337437660    0.60180814792132
O          -1.07438740268982    0.66784667675367    1.49606396311234
O          -0.97738773510724   -0.98827344503262   -0.26723850432332
O          -1.78908435049320    1.23016126304817   -0.74962050182667
H          -2.41912351827692    1.87549213537968   -0.43743663163583
O          -0.41705796773838   -0.29437125616011   -2.98854481071432
H          -0.98285181756730    0.47856252540599   -2.92906857176740
H          -0.67640465554254   -0.86514718143146   -2.25536133028483
O           1.23332345808495    0.52213168992416   -0.84821821108095
H           0.46122271058666   -0.00733869160401   -0.59543455823911
H           1.26516578604788    0.44674486517247   -1.80981321415420
O           2.81099917564261   -0.09419241252002    1.20779952941646
H           3.09988150566358    0.72269569086746    1.61789945221241
H           2.39486452983224    0.15617561367761    0.35445422249317
O           0.56681978137030   -1.09865234763863    2.12041605918501
H           1.47797015255209   -0.76547831038259    1.88333824033444
H          -0.36804205552476   -0.02347393037522    1.84747766520213
H           0.33954673376475   -1.74889528512339    1.44703407936587
