    19
        -40.91484840
S           0.64071846052037   -0.33417972140077    0.31954381730092
O           1.90388506351344   -0.93017802725487    0.02091389490708
O          -0.29480771493736   -1.46491051793519    0.79194198627853
O           0.60617811076314    0.74961834802398    1.25373205698622
O          -0.05005365339055    0.15934267945753   -0.98907900832615
H           0.13591571485428   -0.52701466950929   -1.67753229411197
O           0.77860420698505   -2.00639396368403   -2.16767681873157
H           0.29364666796824   -2.78641506003935   -1.88644498172394
H           1.50520240509767   -1.88627875384806   -1.53438871916503
O          -1.68381701775982    1.97998614437829    0.58422349628604
H          -1.57566860463383    2.09285444880381   -0.36356739992945
H          -0.79803309362378    1.75700480211147    0.92339866342359
O           2.50094829745309    1.76931938442422   -0.55766479605502
H           2.01658125527468    1.86897929258437    0.26597581503348
H           2.85898809996606    0.87829790263783   -0.54269131562730
O          -2.54126913539614   -0.39864493108157    1.29987923196159
H          -1.22907449950677   -1.10165699713695    1.01164630712324
H          -2.69107543819546   -0.35455017040192    2.24744253407245
H          -2.37686912476710    0.53481981879076    1.00034755088121
