    19
        -40.91790598
S          -1.02115188109220    0.04725143795517   -0.10006181790666
O          -0.83657761509296   -0.37284661208656    1.34639499824221
O          -1.13883213284551    1.47398489530726   -0.19386818716199
O           0.00568394144638   -0.52806209955195   -0.93061802401897
O          -2.38771760626688   -0.61292269624830   -0.46349930287309
H          -2.55431778104424   -0.33652331784097   -1.38894034940601
O           1.14258730753492    1.84189952510203    1.25988452720946
H           0.83305461997041    1.75256601748089    2.16375145517384
H           0.34843648065776    1.92263026411677    0.70921777927164
O          -1.84704316816360    0.58147371509795   -2.73878624135083
H          -0.97767364620865    0.16731219706463   -2.77329158584393
H          -1.72277383625485    1.42510968058020   -2.28889332889990
O           2.47489162557416   -0.30340779740572    0.22794593279209
H           2.27445488817379    0.55001399727154    0.65500548226154
H           1.83477859598075   -0.36425381760604   -0.49708011919774
O           1.03435948274550   -2.01245112345837    1.52616123333799
H          -0.08630886448345   -1.10771373005983    1.47720832393026
H           0.88120838644652   -2.70775539110821    0.88121638215063
H           1.74294120295134   -1.41630516461295    1.12825284226310
