    19
        -40.91974994
S          -0.65200432655619   -0.44073646714796   -0.30462614053738
O           0.68842362966563   -0.79834728085413   -0.67839086791051
O          -1.34588367363040   -1.62715096241709    0.36817423027477
O          -0.71275455290708    0.72293166370249    0.55587907291139
O          -1.53886079800334   -0.21463524105765   -1.53172068803187
H          -1.21296615206041    0.57815720433660   -2.08615341140031
O           1.26530060173368    1.89871269186145   -0.88244785698245
H           0.63952145768286    1.78661604873151   -0.14991421432386
H           1.65971657541038    1.02442821415247   -0.99103691373340
O           0.53487882660015   -0.30093581910674    2.71644346240728
H           0.09762542028790    0.19518371273288    2.00034859084849
H          -0.00794477593363   -0.18498216086653    3.49897537517612
O          -0.62419363670071    1.84785222442894   -2.71161753180521
H           0.18306718080012    1.98934083661999   -2.15149573242097
H          -1.19893175259583    2.60312326503168   -2.56514031135724
O           0.73057139862789   -2.62498666065326    1.39771615558645
H           0.82551536449486   -1.90506932620573    2.05842397073452
H          -0.60815828677361   -2.18965068734233    0.80966075411656
H           1.27707751978444   -2.35985125592776    0.64692206643092
