    19
        -40.92078059
S           0.27429902111407    0.43675600430383   -0.90692818268014
O          -0.75872770280518    0.87674008583004    0.17396043519358
O           0.98536308453713   -0.71285385153840   -0.38699181706863
O          -0.38878085741268    0.21742543860354   -2.14725989174407
O           1.20554439700509    1.63959221095045   -0.98103801910662
H           1.38391037396971    1.96135923967656   -0.02274152550013
O           1.90867741639388   -0.28549755339135    2.07920097285885
H           1.68770627400417   -0.56063554025717    1.16760468620715
H           1.42871106567003   -0.87366274235190    2.66515347615966
O          -0.98269593261042   -2.46951658974522   -0.93242291768637
H          -0.18182174396513   -1.97709217583424   -0.67892909723547
H          -0.86899787288696   -2.68739267962051   -1.86052610071089
O           1.39053203376152    2.24501407547983    1.47093785582365
H           1.71183968927977    1.39181679123262    1.84531362680750
H           0.45249087760355    2.29528733244453    1.67879117776115
O          -2.71358959398735   -0.45048999753531   -0.73154638298336
H          -2.25472807466255   -1.32361817419180   -0.72611267376447
H          -1.63528659878657    0.41190328149969   -0.06718096700667
H          -2.64444586626025   -0.13513515558702   -1.63928465529874
