    19
        -40.91117823
S           0.59094361877282    1.09394099127865   -1.29303971526568
O           1.01960238376181   -0.37413044184492   -1.18374200476758
O          -0.75677972029135    1.22616939297714   -0.80219366023088
O           1.58027859117264    1.94747119910659   -0.74493494190674
O           0.53387710401922    1.30748282887556   -2.84899380803701
H          -0.28231644843120    0.93941204684777   -3.18455530681895
O          -1.69714082282254   -1.46501147823364    1.90117356051199
H          -2.57942806275797   -1.31738567750214    2.24485621716592
H          -1.78626387801018   -1.55309823108968    0.92912236435808
O           0.02751168575147    0.60174437301833    1.81645557966098
H          -0.55630763952845   -0.16781688904492    2.00072194983367
H          -0.35869950760810    1.05122039361603    1.05428540870486
O          -1.66195361622141   -1.32623544707511   -0.80456785152078
H          -1.50962887026304   -0.36514393474859   -0.80821308798800
H          -0.81620229470112   -1.72183592295729   -1.03462130860608
O           2.31896120480341   -0.17928179450842    0.90216422432337
H           1.65002796815751   -0.42084246195428   -0.31561747636201
H           2.77055573301628    0.65428767980252    0.72506910604358
H           1.51296257124722    0.06905336372556    1.44663074061388
