    19
        -40.91146974
S          -1.10013199265055   -0.22240892077866    0.20531118546804
O          -0.47162447704665   -1.49223827916101    0.49741079722701
O          -0.99543207115990    0.68317339083319    1.35975478387545
O          -0.62623901969844    0.40858581912293   -1.00551953842803
O          -2.64390814548663   -0.48915174215199    0.00968370791370
H          -2.90488713865968   -0.95179393854366    0.80084897884765
O           2.01596720580885   -1.04875544200456    1.03161275310360
H           2.28410692983789   -1.66829329780513    1.71363100441461
H           1.10269911259750   -1.32646961056473    0.74992878197469
O          -1.72367687553873   -1.58786941555800   -2.56736312137599
H          -1.23445447396331   -0.87989830392496   -2.13031628737288
H          -2.63054928581454   -1.49749403880439   -2.26925944728047
O           1.37361661653048    2.09069830830997   -0.90607679428354
H           0.55255397532165    1.57024358248317   -1.07764950695692
H           2.05007642587440    1.71607463328338   -1.47537798692982
O           1.37241018656938    1.34997705180762    1.51276121814758
H           1.77280886988257    0.40585364548806    1.41199927947487
H           1.48405545875620    1.78899936397695    0.58384316737361
H           0.32260866960617    1.15076718385338    1.55477700437708
