    19
        -40.91836658
S          -1.69075149657336   -0.60704627315155   -0.81357597751982
O          -1.40016673641293    0.73632578259356   -1.33902295211919
O          -0.82035691227639   -1.60024745164155   -1.41553157695885
O          -1.68968816298036   -0.64070038520010    0.63076903342381
O          -3.16046132424727   -0.94018965279510   -1.28003373743875
H          -3.06236010939209   -1.02270371665369   -2.22373796892614
O           0.54353811642146   -0.60064285343684    1.90292582725264
H           0.40418656307871   -1.03322836604081    2.74704646001206
H          -0.34239921670681   -0.62362556563650    1.44401406199046
O           1.18309670026100    1.96114908601700    1.44972755564900
H           0.91527281842305    1.06871412868602    1.76285062345035
H           2.07329332812013    2.11754719704602    1.77044562930988
O           1.58115038192800   -1.02139741708779   -0.61899709252426
H           1.45426562506419   -1.08168141909236    0.34249602260619
H           0.75630786229217   -1.40579132782326   -1.01060197965887
O           0.96115496653928    1.36609197314524   -1.04843840685467
H           1.01927847329513    1.76095422551507   -0.11679139021685
H           1.35401325902319    0.38953467623721   -0.95327002155087
H          -0.07937413466845    1.17693735796574   -1.23027411024973
