    19
        -40.91971856
S           1.28794707010203    0.07897531796262   -0.58230218392017
O           1.14640586146545   -1.03863847742925    0.45814538997793
O           2.67669706252226    0.30521703588801   -0.80726701736598
O           0.44999771111575   -0.17625658314637   -1.71255038639637
O           0.67086633397329    1.32298450538835    0.15829067605313
H           1.33012393282915    1.50059466922486    0.87687430735074
O          -2.14980921590389   -0.71586145818513   -1.72555253378820
H          -2.47732535124215   -0.89149275587412   -2.60867272262597
H          -1.20058356082704   -0.49795803137828   -1.82286122694347
O           2.73064422996446    1.15864378836121    1.71346999931044
H           3.14484643596016    0.89328695524852    0.87386038763540
H           2.67159667954160    0.36359633326163    2.25020174438371
O          -2.11804836376128    0.94280055954742    0.56444694280742
H          -2.44644840428720    0.67980290721749   -0.30701327084020
H          -1.26675100034822    1.37265932252663    0.41624501628719
O          -1.28470061367463   -1.55720185700947    0.77364324363276
H           0.14639478188841   -1.31309525130485    0.60731016525801
H          -1.66378782565315   -0.66602607506252    0.97497586325934
H          -1.64806575367420   -1.76203089518288   -0.10124441409154
