    19
        -40.92037957
S          -0.77292560754870   -0.33715771112828   -0.67715522460890
O          -0.51328414366731    0.86981690671604   -1.39498235034458
O          -1.24119416722556   -0.13915146235933    0.68463039974428
O          -1.82791720638347   -1.16816118404006   -1.43676011476329
O           0.44619172635664   -1.24191879645622   -0.65752299690965
H           1.33713679015431   -0.72042207886512   -0.33483874012289
O           0.72374120480497    1.21331591105884    1.91022870074514
H          -0.07803023673810    0.82559394696279    1.50919075891786
H           0.70833925504652    0.97147098800232    2.83841903637813
O           1.91304270641944    1.99836081670653   -1.68389929626057
H           1.00554305134908    1.65101618620523   -1.76811673127180
H           1.82488724922073    2.88692064426497   -1.33279426527991
O           2.36555160680560    0.11153226235758    0.11904581111524
H           2.42083947956930    0.79474358119736   -0.59340405474845
H           1.93846874453193    0.56506027884957    0.88035428328925
O          -2.54719560669347   -2.43777602800912    0.71699616495234
H          -3.47200607970157   -2.34468642858357    0.95883941651638
H          -2.14825929725712   -1.84928388414414   -0.79362210433843
H          -2.08292948904248   -1.64927393873777    1.05539131698440
