    19
        -40.91865343
S          -0.09730844975707    0.97029952394103   -0.23375728704506
O          -1.15679446257509    0.40750319627408   -1.03797264447200
O          -0.33232072486423    1.01604469948961    1.17445360604954
O           1.18918032407546    0.19521028129901   -0.52615598803947
O           0.18464356433182    2.40655870485491   -0.74218804552102
H           0.07038662617950    2.39130159425222   -1.72717321809281
O          -1.67897840497642   -1.44589608577084    0.89865775801452
H          -1.62739680474747   -0.94852928253518    0.06814337113067
H          -1.76119602423207   -0.77404411824030    1.58202713437824
O           0.65519695081230   -2.61702804350604    1.57213030330309
H          -0.24474256027799   -2.28833666820134    1.35550879173197
H           0.91551259702296   -3.18937681406039    0.84861126568215
O          -0.53552123397099    1.85383419999626   -3.18106829236647
H          -1.28622415295130    2.34071447103563   -3.53045955297730
H          -0.89544619884662    1.09673137594780   -2.68458441030880
O           1.99062843059725   -0.34900006364543    1.77134741649456
H           1.66066108552832   -0.02960422560607    0.38042513161481
H           1.33687960949463    0.22800701796554    2.18707624927487
H           1.61283981916994   -1.26438975345538    1.82497840114002
