    19
        -40.91716441
S           0.54334204854714   -1.18499953858340   -1.09009401021274
O          -0.87260520131295   -1.18027659721250   -0.70805017172871
O           0.92348854787297    0.09361633295875   -1.67163333409087
O           1.39203355107189   -1.60920419456449   -0.00420735878580
O           0.69314233026131   -2.24842126941454   -2.25442903430727
H           0.47332429072264   -1.74342417496296   -3.03111730031906
O          -0.31916594234041    1.28809276066787    1.67061201434955
H           0.56167412731549    1.50771860090201    1.15438080209750
H          -1.04652828607135    1.33859530627736    0.94469095325904
O          -1.92865171929822    1.11706041298262   -0.27787633360092
H          -2.86582902143192    0.95468782236314   -0.15484215966182
H          -1.53027928777587    0.25235555747614   -0.58219507282444
O           1.67856803043853    1.68545716614546    0.19762189071036
H           1.72634665105495    2.54904206441504   -0.21876548044590
H           1.48096212121232    1.03717831706312   -0.53671808675612
O          -0.24070588103402   -1.20069188631070    1.92888978532233
H          -0.25906359075396    0.25208561893468    1.90495409897346
H          -0.96409544851865   -1.47721742928828    1.34907505285728
H           0.55404269013726   -1.43165487994703    1.37970372494572
