    19
        -40.92052667
S           0.38155632536087   -0.66197828616701   -0.34864467013403
O           0.82208439015568    0.69676427374535   -0.54468016268728
O          -0.77618564688482   -0.78019380997460    0.50237972694586
O           0.12026867769727   -1.30718420830032   -1.71269056712945
O           1.51336150607745   -1.52203016519669    0.22078709025578
H           1.42015307714730   -1.49473240571462    1.24381369740697
O          -2.62645018080280    0.54361971952973   -0.93323924502270
H          -3.40242981968563   -0.01615229660664   -1.00362338337421
H          -2.03489137914905    0.11531397279129   -0.28599328305801
O           0.98952067108886   -1.11554660321090    2.65701505802304
H           1.21850222382814   -0.15826955637196    2.63917172306925
H           0.03449968809892   -1.15286128566309    2.52765652945293
O           1.49904034610571    1.40547978798684    1.96044446400342
H           1.21472153340892    1.30053657054457    1.03282627286682
H           2.38110077208137    1.78197871959015    1.93304360387041
O          -0.78174016103357    0.76200548205409   -2.84422194489521
H          -0.14712782437284    1.35154500364179   -2.41990438597083
H          -0.22959114710249   -0.56390417440597   -2.32988632956480
H          -1.59639306197881    0.81560925174870   -2.29425418402491
