    19
        -40.92218948
S           0.24358589620240   -0.12317490960966   -1.12477206096645
O           1.06689788520573    0.89758545284665   -0.48460588870118
O           0.31864827270104   -1.38704586401181   -0.39883135334715
O          -1.14109407748910    0.32474362276453   -1.27359654346392
O           0.78720735649020   -0.35522057512009   -2.56477120646234
H           1.70608781374711   -0.64989911367087   -2.39475059731446
O           2.91618612233086   -1.00319150648902   -1.16055962705129
H           2.31615948065800   -1.59218243898488   -0.68384450966791
H           2.80312572218934   -0.14148980916865   -0.73803635002317
O          -0.11909433920449    2.15251623453812    1.44936241736439
H           0.43518791736891    1.69493133962957    0.76110025591805
H          -0.14124811591362    3.07881373817674    1.19955558125312
O          -1.32874176597079   -1.55781193221647    1.59612619918352
H          -1.89830694761215   -2.30874197677443    1.41544650518997
H          -0.62930661641806   -1.56607388698306    0.88841245421265
O          -2.14751178167346    0.73872198145575    0.94225866704004
H          -1.92628897196574   -0.18628949041408    1.35067593868312
H          -1.41459494919842    1.38254230617857    1.28880543066715
H          -1.84689891145900    0.60126682785708   -0.06797532251990
