    19
        -40.91975001
S          -0.28504104140260    0.74726562560685    0.26889436633122
O           1.04999535218080    0.33196314240516    0.59936856624853
O          -0.25056939464315    2.06830957097029   -0.50268234280575
O          -1.02145992073471   -0.24761818401111   -0.48367273627397
O          -1.08154254163479    1.13498612918523    1.51744823641110
H          -1.21236184956152    0.33557736770342    2.13873367486957
O          -1.38134772732454   -0.99995122051950    2.87196313073689
H          -0.81847858448067   -1.60273886556642    2.31936155828125
H          -2.28355223543344   -1.32108151085069    2.80074926201928
O           0.45871593262638   -0.23465009746821   -2.73806262432146
H          -0.13761481370940   -0.35639551567073   -1.97670992024253
H          -0.10205313594520   -0.08460460930201   -3.50192115065125
O           0.06090762562838   -2.21534084978303    1.03876549641041
H           0.87924819994670   -1.70432948914214    1.06678728851065
H          -0.43797602152360   -1.82353186439577    0.30487433043399
O           1.97192334096234    1.68012801712190   -1.63266648747893
H           1.61930455947035    0.98329091722391   -2.22768205769442
H           0.64879078511021    2.09792864094783   -0.99840177532964
H           2.32311147047194    1.21079279555806   -0.86514681547867
