    19
        -40.92217275
S          -0.81544473959821   -1.10154468991399   -0.16348588099859
O          -1.66037777030575   -1.73112847608343    0.81024220843924
O          -1.13840052631534    0.27801367215044   -0.48229889172763
O           0.61564226877104   -1.25039636444234    0.13061417899507
O          -1.03256425536933   -1.88748582346886   -1.53995223550586
H          -1.36289963050906   -2.74258941862841   -1.28063615444254
O           0.49697235447908    0.87205812853031   -2.43336158315789
H           0.56678118306450    0.10485078641478   -3.00477937861187
H          -0.27723030059709    0.70631830412149   -1.84778024462873
O           0.10296605032923    2.01375025538290    1.14108661965832
H          -0.61302249985676    1.75675264911481    0.53347616476255
H          -0.00752835315201    1.38720096836853    1.88990926647207
O          -0.33539234455558   -0.19574386181109    2.57953165974675
H          -0.96351692446347   -0.74028269224537    2.07287388798826
H           0.43503541964686   -0.75284155397727    2.71369388297515
O           1.83347592167016    0.86878525883319   -0.24873479638525
H           1.21477288619349    1.48057102855317    0.37319917877546
H           1.43774735332289   -0.08949917487971   -0.04788485292716
H           1.50298393726237    1.02321100397437   -1.19571302942395
