    19
        -40.90978649
S          -1.33040362202340    1.49736613455784   -0.36223145975080
O          -2.52020827986279    2.26294508784945   -0.43136632720004
O          -0.21649370051496    2.10495804586571   -1.20180544342792
O          -0.81731582356757    1.11822512785735    0.92293001918504
O          -1.62836489594686    0.12718275599638   -1.13986454233805
H          -2.36373740220327    0.32392640559623   -1.71563214274115
O          -0.97034703068168   -1.36806668071648    2.01279927329626
H          -0.51847083804838   -1.34593985097018    2.85799212869729
H          -1.00507395953491   -0.45016045662290    1.69133187878090
O          -0.04823248148432   -2.15842467875789   -0.41137004609624
H          -0.35135257158222   -2.12125475676055    0.51591362229285
H          -0.62888054504189   -1.54700845306114   -0.87671517247711
O           2.33291668021366   -1.00452269646536   -0.44751707058197
H           2.77013993024725   -1.26077760735773   -1.26027844695134
H           1.47920228918780   -1.50546492002411   -0.41675140689364
O           1.77844492740342    1.48747447815686    0.13999925820783
H           0.69357350517493    1.88609012314709   -0.72033482859363
H           1.26608686591965    1.38235294295437    0.95106694256875
H           2.07851693234790    0.57109899873866   -0.10816622597989
