    19
        -40.91485262
S          -0.29779318242532    1.15618863033657    0.17864753863693
O          -0.59840913307464    2.40943918354102    0.77975503420587
O           0.12005195475638    0.12032705715812    1.09485241709618
O          -1.44796527535479    0.66244773045229   -0.68113033449946
O           0.84887595378271    1.31361712139521   -0.88981353224764
H           1.58487862373402    1.71122481340120   -0.37666569713340
O          -1.88059224205642   -1.84097732340692    1.01282406851533
H          -1.29605366537391   -1.12433550854571    1.29601752251775
H          -2.58252841681206   -1.42989990544346    0.50470086829257
O           2.09408935427621    2.25595732619193    1.20512088317119
H           1.28722203837392    2.75883643641316    1.38155191917778
H           2.08195202097798    1.50983621515532    1.81172956611896
O           0.59989731638356   -2.25895425860012   -0.17193412492596
H           0.69868309212336   -1.46574864613490    0.38141225490217
H          -0.18624991917789   -2.69580835277398    0.18836308837697
O          -0.35973326435672   -0.97602586672098   -2.21478614236898
H          -1.07642402065173   -0.04210739594138   -1.37359205060828
H           0.36490657338223   -0.46934214635982   -2.59201046110382
H           0.04519218147360   -1.59467509998731   -1.53504282843189
