    19
        -40.92136409
S          -0.03611917509497    1.36547264782746   -0.23988944307675
O           1.15665836521516    0.55534679972551   -0.13666477817013
O          -0.28163705682607    1.89540049593036   -1.55814851534208
O          -1.20461753575033    0.64915035629202    0.30141755880490
O           0.17172359191722    2.60520982686043    0.73006221287012
H          -0.34556360268557    3.30096036523639    0.33434704208245
O           0.15211057251539   -0.48508445976258   -2.60184036747383
H           1.10668349813255   -0.54619719845577   -2.50639087643119
H          -0.06974695657362    0.44960268606409   -2.38814385278002
O           0.95878755443856   -1.86336004625616    0.85035044907810
H           1.32456203329881   -1.02550742672770    0.48458734130743
H           0.58366575620005   -1.57335429464256    1.71121754282654
O          -0.18159536359281   -0.23199256290765    2.62146891666430
H          -0.68264215279078    0.15657387880732    1.87967747540295
H           0.38568100086602    0.46622504590194    2.95283510885264
O          -1.00024466770923   -1.66222289176125   -0.65288608814310
H          -1.29128519112864   -0.76749850982099   -0.24154108378881
H          -0.58519324410379   -1.36081464541302   -1.53911485205959
H          -0.16122740637444   -1.92791005675004   -0.00134379060518
