    19
        -40.91893396
S           0.95855867467253   -0.38124389942387   -1.39522395764351
O          -0.18322121471993   -1.20923909725564   -1.05999562343630
O           0.69137648142283    0.67476282747224   -2.33864112587494
O           1.62503411375794    0.11568115378525   -0.18190662672690
O           2.00890213394579   -1.34817261706353   -2.08853390470410
H           2.53222324563198   -0.75212835427507   -2.61561671828548
O          -1.02123216649835    2.00784843655385    1.43368099716753
H          -0.55263089233730    2.84057365146747    1.34975764465488
H          -1.30063708781335    1.75363923629304    0.51274222919026
O          -0.83290682360565   -2.00247739588790    1.31906236752601
H          -0.45489420745314   -2.87189736764143    1.46326984379355
H          -0.67170424995694   -1.78293674970958    0.36494968884229
O          -1.52439212920606    1.22260546480935   -1.01563493741562
H          -0.73195832462530    1.20354221656570   -1.59020779431398
H          -1.84401768103284    0.31533902644685   -1.02666359362949
O           0.48544489618380    0.05716296741143    1.99792072140357
H           1.05578248308511    0.07589062873923    1.09264106094512
H          -0.15137027133182    0.86687638702771    1.88654036295214
H          -0.08835699014694   -0.78582651529575    1.89185935553946
