    19
        -40.92217268
S          -1.37473735166674   -0.02782074800479    0.12815352335214
O          -0.59593657832678    0.85134575678081   -0.72588304732510
O          -2.30901208781235   -0.88442182037355   -0.54405373162588
O          -0.50714015262470   -0.74635427346662    1.07048131585961
O          -2.23394372774501    0.96558845094310    1.04139206572579
H          -3.06064067234783    0.51256731580165    1.17894612201165
O           0.74840283665178    2.33889676286629    0.95126126536554
H           0.16586812296330    1.97638717813330    0.24470527604287
H           0.17236128879449    2.54824245624037    1.68904547188835
O          -0.12263255400893   -2.26681297254312   -1.28603637217578
H          -0.01026201695693   -2.80188917148781   -0.49679097198196
H          -0.99204372174995   -1.83993020530457   -1.18774154927460
O           1.66954034483851   -0.30586960594647   -1.57690613969922
H           0.94691947833627    0.34180166965835   -1.65497243854567
H           1.20158115898237   -1.16775953522043   -1.63869355637060
O           1.83706435611286    0.02164445043380    0.89363777436954
H           1.64332671224725    1.01156704027786    1.00532199332794
H           1.93948753723231   -0.13232744981836   -0.15926586097423
H           0.88179703706937   -0.39485529898263    1.06739886005689
