    19
        -40.91907697
S          -1.55786029147776   -0.22084107322458   -0.55142064672883
O          -1.19354657915982    0.49820020431167    0.68766116513386
O          -1.86956430786446    0.69318401418231   -1.62526622408785
O          -0.55862909485692   -1.21072536322658   -0.88230203462307
O          -2.88938913717440   -1.00280541653295   -0.20247445603854
H          -3.59321102562739   -0.37818597779030   -0.35730098769015
O           2.41040439563366   -0.15708310400420    1.30285434336282
H           2.77994969658502    0.02980592243101    2.16772943695023
H           1.68491823236397   -0.83394456087656    1.43812705411566
O           0.68408986296122    0.86525413025228   -2.19725792014190
H           0.79905605571678   -0.09214661805664   -2.13738870289854
H          -0.29227763073167    0.97721917919269   -2.22981562175313
O           0.27689862913191   -1.62782069478856    1.58601636934986
H          -0.37166460120249   -0.96252767889844    1.85076591610707
H           0.05342692248559   -1.78521135961454    0.64741743029259
O           0.97327209463754    1.60480594373628    0.20026626249751
H           1.64987503779790    0.95085963827507    0.64338578310899
H           0.99008605048812    1.41268865817571   -0.82215185826417
H           0.02416569021852    1.23927412642402    0.48115469134492
