    19
        -40.92079120
S          -1.27808820757842   -0.14818397546213    0.74324669268225
O          -0.84706865187258   -0.90082306294074   -0.42678122080212
O          -1.01937446623732   -0.80606164743885    1.99801286239578
O          -0.75933540652501    1.22063530213660    0.70915525715099
O          -2.84862158784611   -0.02196720332912    0.59465363979844
H          -3.11911538714454    0.35453743983700    1.42628134248293
O          -0.69760628413682    0.47001912343824   -2.65792262319427
H          -0.42344255248565   -0.12607196377868   -3.35781066191744
H          -0.94355595934893   -0.09503373362280   -1.88776991651570
O           1.61063336814857   -0.62959795864085    2.19104456223573
H           0.62930767437434   -0.64960998140707    2.21372243611245
H           1.90554536310042   -1.29857774957488    2.81184625398709
O           1.81142049511599   -0.70796989546181   -0.43593806933076
H           1.97566666601689   -0.68288153914773    0.53602450816591
H           0.90234434659428   -1.06300460935574   -0.50977998448357
O           0.96093508798300    1.55584795183330   -1.03877054476246
H           1.49904156260046    0.66158716196123   -0.81837642760308
H           0.38470882731435    1.30603838188272   -1.83613548447762
H           0.25660511190756    1.56111796908204   -0.25470262192770
