    19
        -40.92453838
S           0.59221117285012   -1.40420769670605    0.00806935236363
O           0.78281004220981   -0.83720544411672    1.33874622525498
O          -0.82713793630892   -1.54038974654262   -0.29790908806167
O           1.31284373864215   -0.67564750448102   -1.01465985814539
O           1.20451507995674   -2.85993890116406    0.03539359152983
H           0.72259565534105   -3.31728994890931    0.71836020930471
O          -1.51336932891819    0.33856550714599    1.58852428201981
H          -0.63379140357572   -0.10817064904055    1.68369765264064
H          -2.04101991488123   -0.30307950739861    1.09856622086395
O          -0.75522696167053    2.03490640544530   -0.11270770658287
H          -1.16747841319920    1.44963593882254    0.64944652326171
H           0.27696190442505    1.98573521138532    0.05281552515906
O           1.68596348101716    1.54453819171142    0.28006077545180
H           1.74569163543431    1.16552079906908    1.16508433969142
H           1.73153269962934    0.75459953741308   -0.31273596935170
O          -0.99485050232337    0.40228300481511   -2.01800948368856
H          -0.12269675642428    0.30902282178961   -2.41863860903647
H          -1.08332684951170   -0.41220847852071   -1.46251830295764
H          -0.91622734245413    1.47333044933648   -0.98158569984270
