    19
        -40.91618750
S           0.63684641913140   -0.35226802817705   -0.44408589787273
O          -0.10936642480540    0.25508496151501   -1.50613012922482
O          -0.03816203806187   -0.33936358205724    0.83450608490135
O           1.01261864157767   -1.79811173978215   -0.79394617001235
O           2.02455159821210    0.28990210981385   -0.31240453248898
H           1.95640106449154    1.28880900468513   -0.14498827383301
O          -2.31297224690873   -1.23811006602068   -1.72377386027934
H          -2.42438407358184   -1.46162174062101   -2.64998495792947
H          -1.60672701957292   -0.56239341265469   -1.68839860615343
O           1.79634838103199    2.74993864399047    0.33519438946852
H           1.00756749907370    2.68144319308444    0.92180111274556
H           2.53462482229228    3.02041350763330    0.88678672337786
O          -0.19958103249692    2.07425216815373    1.94918576988553
H          -0.27574641656008    1.18175260321310    1.55396420159631
H          -0.19344285869054    1.94738061491189    2.89996497073600
O          -1.14032837430394   -2.79268767185114    0.08470747780141
H          -1.74056722756509   -2.37772463734011   -0.57770074488676
H           0.22705820157635   -2.36623488988452   -0.47053205411654
H          -1.15473889459826   -2.20046102966946    0.84583450555198
