    19
        -40.92003351
S           0.13746776304284    0.23170481928285   -0.83643428359674
O           1.41920791936616    0.02151603179911   -1.64606285921426
O          -0.50871804904978   -1.02877691996204   -0.57138631772652
O           0.43985332424550    0.97438923311611    0.36414535365151
O          -0.70455399584456    1.07658257197452   -1.79476318530192
H          -1.60530963728339    1.31422453023474   -1.37530888104210
O          -1.89625244438897    0.29099484536518    1.51564034436991
H          -1.88088322187230   -0.62041594720295    1.20640268653322
H          -0.98983317686946    0.61699914742656    1.37694182411850
O          -2.83010614661879    1.66116380662371   -0.52565665968555
H          -2.82582894800670    2.59120440255275   -0.28621039554341
H          -2.65340093772064    1.15209198902191    0.30853882896112
O           1.42018156829120   -2.32983284010770    0.75797176071983
H           0.63104571283516   -1.95726534022539    0.31946260735129
H           1.59004165584850   -3.17554690388489    0.33804542608488
O           2.96930223980781   -0.19604701255043    0.33536216117346
H           2.59608690332574   -1.05572217110235    0.63418525253394
H           2.18599363464509   -0.04600800280366   -0.96686160187347
H           2.50570584637811    0.47874375047009    0.84598792847787
