    19
        -40.92343662
S           0.77488335617931    0.57727385357118    1.38274481237831
O           1.62713685651897    1.17474789818588    0.37687920155043
O          -0.46102173596972    1.33788993252457    1.57299412932994
O           0.50665150711207   -0.82841883636364    1.12329868095466
O           1.54446745250091    0.63414193547442    2.75623128994666
H           1.67620191552711    1.56850217855556    2.88343680199286
O          -1.84562155062983    0.95724402234057   -0.45388399976461
H          -1.37879019706817    1.22233342969867    0.44318728783866
H          -2.00880267732225   -0.05158628149464   -0.34442010415743
O           0.81084616663416   -1.60173976371213   -1.39823476050561
H           1.68917457775249   -1.91479672556397   -1.61867139611861
H           0.83091459196201   -1.37795057492601   -0.44156106084767
O          -1.78492618290078   -1.55286972907508   -0.03661387457222
H          -1.38988102762290   -2.00488740165068   -0.79041588692402
H          -1.05334395661356   -1.44202315437199    0.60577261259365
O           0.23273314641281    0.98609913171790   -1.82804460023659
H           0.41756587781078    0.03405627741043   -1.96969317907982
H          -1.04417836370781    1.04187195132315   -1.15692560944948
H           0.85599023368331    1.24011185656394   -1.10608034511951
