    19
        -40.91373479
S           0.54548957049457   -1.54700119361109    0.30157878814973
O          -0.31156358087749   -1.95449187322439    1.49032043704211
O          -0.26278554009113   -1.37519577855890   -0.87602109350351
O           1.40571395312434   -0.46062970046499    0.63765826880278
O           1.43522139518078   -2.82117714647336    0.07591393800401
H           0.87663726240427   -3.52575260356202   -0.24866149310069
O          -1.74567935925567    0.75775470338600    0.14083332769625
H          -1.44081418563729   -0.01082990458936   -0.35965391136049
H          -1.32410095452416    1.54046798272337   -0.27944829483276
O           1.31883101075933    0.65827951242627   -1.87102776886631
H           1.77302184105183    0.52542548805082   -1.02907879173561
H           0.68049506277302   -0.06671251030515   -1.91089131600145
O          -0.34664096549858    2.64912139933077   -1.15324061650400
H          -0.71151297833483    3.08560359105669   -1.92443391149589
H           0.34755619840787    2.03575107850828   -1.48060627813683
O          -0.68584982036948    0.29310324126493    2.45201057582059
H           0.19342816257098    0.67147257491028    2.34074816633966
H          -1.22317816945806    0.60644817315787    1.66390214237548
H          -0.52426890270452   -1.06163703401706    2.03009783133078
