    19
        -40.91778010
S          -0.86709762829431   -0.04329341302558   -0.98804133594827
O           0.39738977343035    0.01159261694378   -1.64589304301889
O          -0.76540097101186    0.89313315868906    0.27538211975219
O          -2.03036010451779    0.33116084591283   -1.72872625865026
O          -1.10310399039981   -1.42874349408982   -0.37752166588400
H          -0.24216159384331   -1.76351768201011    0.06811348934522
O           0.99963327436525   -2.12005002588987    0.84277740005264
H           0.77604260447162   -2.60163160859135    1.64241156053138
H           1.36948969042220   -1.23420619794979    1.13554379799644
O           2.90238443603596    0.69904414553358   -0.89298915015431
H           3.47033465926178    0.00784537075246   -1.23892698970785
H           2.02516172954488    0.54610587392558   -1.28861705023543
O           1.74316053433431    0.28551928701552    1.48303265039364
H           2.34029098425937    0.52119767942602    0.73901492394327
H           0.92285724009594    0.75825468292916    1.29951564041545
O          -3.33024712433593    1.18946492073172    0.38529012435494
H          -3.68987202555723    2.07099422337876    0.25809888467616
H          -3.21148577738698    0.80285607736794   -0.50468233431199
H          -1.70701571088121    1.07427353892937    0.53621721644109
