    19
        -40.92079115
S           1.03077897018675    0.98632580896125   -0.41518495309360
O           2.31515715483886    0.55775304089887    0.07563929271432
O           0.53550225639673    0.14255458574871   -1.50443282284741
O           0.01984462025720    1.15195055036010    0.62001911800477
O           1.22363182035037    2.42926157753301   -1.03596799788065
H           1.97361334061270    2.32208132425501   -1.61257498305511
O          -2.45575937374828    1.29939793994214   -0.23348871013140
H          -1.53319808428018    1.45139753162768    0.08080256502938
H          -3.02746458320791    1.42431864972960    0.52667562583625
O           1.84592048312107   -1.94992553831916    0.76562469438438
H           2.52859208399408   -2.21702004776172    1.38409337500634
H           2.09866119204958   -1.05526911884616    0.44989512525788
O          -1.58878299650862   -1.00031345191271   -0.94809510808517
H          -2.14278533639429   -0.16673734739727   -0.77921556532379
H          -0.69082124702355   -0.59284156338677   -1.31947766831686
O          -0.65022439336406   -1.32607823945387    1.33749733702155
H           0.21929466057454   -1.77329871277723    1.20966146676498
H          -0.42068611812477   -0.37527570946973    1.37264782572826
H          -1.28127443967001   -1.30828128975395    0.02588138307136
