    19
        -40.91464808
S           0.33772426244199    0.93265591948154    1.11123810223707
O           0.44993224798041    1.37100957843022   -0.24943386281155
O          -0.97043965382933    1.43859284522611    1.70016830950177
O           0.52374250532508   -0.46503476177982    1.34787845224375
O           1.41200353720916    1.68608974654747    1.96696293819992
H           1.43423245865146    2.59625160163573    1.67789962097737
O           2.19874690613349   -1.85697090449162   -0.32349475869573
H           2.19123733815611   -2.78323936746827   -0.07477949065075
H           1.70465967504712   -1.38150071100326    0.36407712797432
O          -1.45667688382342   -1.30747892754038   -0.42710032266085
H          -0.84421772542756   -1.21359041681327   -1.19882666390401
H          -0.88143818060344   -1.32678978474085    0.34768145168942
O           0.48342853141921   -0.67874683351706   -2.12181019093594
H           1.21532818273816   -1.20050117022975   -1.74976180710903
H           0.57469223655370    0.19298561158044   -1.71237140479854
O          -2.44690527964736    1.06394145585308   -0.25329884579276
H          -1.98706403707225    1.51330486408919   -0.96955476089772
H          -2.24116337014162    0.08371046094878   -0.37024170794667
H          -1.69782277113844    1.33531080375783    0.93476779337059
