    19
        -40.91504918
S          -0.10544868247612   -1.17341538243602   -1.32630373648777
O          -0.97996613640053    0.07567081588156   -1.27331009072998
O           0.92700141184765   -0.99118024641272   -2.29375593062704
O           0.25770751378919   -1.56936372985001   -0.00152000163859
O          -1.08170403009859   -2.28669915521713   -1.87724952227088
H          -1.06300814307267   -2.25350632367615   -2.83179046638375
O          -0.52859284891385    1.52982764746107    2.28416820675412
H          -0.50382677491343    1.55144104581338    3.24192773348298
H           0.35699860066968    1.18999642296113    1.98867544546683
O           1.66465430624188    0.39419247904501    1.37095601963479
H           1.89099248916435    0.88542833642685    0.55971994055215
H           1.34183159256490   -0.46190111677126    1.05571949214997
O           1.66379273310281    1.38355556494340   -1.16574970336235
H           0.84786574523918    1.86439649234913   -1.32290811303180
H           1.61804974263798    0.58378057833716   -1.70963155800128
O          -1.92771953416008   -0.24086798650019    0.98512260708028
H          -1.51801671712023    0.49999782066192    1.52037668191269
H          -1.49476125124354    0.03217792746700   -0.33964579319105
H          -1.36585001685327   -1.01353119050208    1.13519880869374
