    19
        -40.92079120
S          -0.68148616680149    0.18251408813891    1.30774446547395
O          -1.48077862680021    0.59612377230459    0.15279235685796
O          -1.07259749278201   -1.10652676480894    1.81732627340731
O           0.74280249149163    0.30978157719721    1.03158849821627
O          -0.97666290866320    1.24478502667257    2.44331092864057
H          -1.87447638012901    1.05328865125107    2.69568950052463
O           1.15040758869398   -1.11830288293212   -1.18213529491880
H           0.47823063330901   -1.82655016944049   -1.04505836077738
H           1.26131733182225   -0.72633164192641   -0.29225990702741
O          -0.80312049217331   -2.65619672353608   -0.30648509981287
H          -0.73133329919765   -3.56288037847842   -0.00211174627060
H          -1.00167940839447   -2.11597583456110    0.48892843262784
O           1.42501783922545    2.35089303129213   -0.46801375976257
H           2.37901023167981    2.34282473146847   -0.56875014709520
H           1.21313121248601    1.71224097447800    0.25319012787978
O          -0.12599874819776    0.89990057197202   -1.89628079392590
H          -0.82553972108094    0.80314029312096   -1.11362778931366
H           0.49281493180096    1.61942299952554   -1.53605122549038
H           0.43094097371817   -0.00215132173908   -1.77979646923930
