    19
        -40.91373485
S          -0.71338679460858    1.15511496252582   -0.96915362264375
O           0.15948270890021    2.37154261704539   -0.70207457481711
O           0.03404754221502    0.12818672993363   -1.64483352651496
O          -1.40877758552248    0.75387745333077    0.20922748629061
O          -1.76748374811276    1.71455143792704   -1.99007907231282
H          -1.32152522891783    1.89324461246346   -2.81649827243229
O          -1.34388982659699   -1.92237948759293   -0.41216824164563
H          -1.75716343900013   -1.17972150176631    0.04666513527878
H          -0.80412168717942   -1.50443536009259   -1.09676916236905
O           0.59659536579773   -2.49987683018308    1.36282047656379
H          -0.18724028380944   -2.41099749224119    0.77699522963364
H           0.96238564364053   -3.37052992170103    1.20014288935964
O           1.83303841505167   -0.30188838755378    0.44319812839363
H           1.48444883451637   -1.11608704134976    0.87072569031828
H           1.40319386605884   -0.24894007629946   -0.42090385888366
O           0.87440019475440    1.80272034387571    1.59532328931526
H           0.04384444587390    1.46726324991908    1.95075275244914
H           1.39452305030851    0.99595032866713    1.29971334936365
H           0.51762851651754    2.27240435313521    0.29691591463955
