    19
        -40.91990211
S           0.81370933474533   -1.27348255445325   -0.04685702373686
O           0.77054666233029   -0.35536353946480    1.08040256267751
O          -0.28910868484689   -0.96147287302959   -0.98461258591344
O           2.08732713838383   -1.32695017633400   -0.70233807698612
O           0.48440103390223   -2.70543072961607    0.52696980550951
H          -0.20208364483979   -2.56596461996069    1.17596619341764
O           2.32812835747136    1.29375579954647   -0.62937142665940
H           2.42783012915760    1.41544841585425    0.31959012939330
H           2.41873926650361    0.32346380863392   -0.77174261759530
O          -2.48348333539529   -0.70502679084184    0.46474285422616
H          -1.72383495789960   -0.89969246534721   -0.12486015220231
H          -3.27582251122464   -0.86150626834328   -0.05159194698053
O          -1.06599508472575    1.50288181026879    1.11071164703019
H          -0.34078536018384    0.88756613185890    1.36923604154424
H          -1.83996592017964    0.91105604285842    1.03448552980917
O          -0.13702794152490    1.52404298010242   -1.19618462078752
H          -0.25900489550178    0.50212991238182   -1.29585385570306
H          -0.59406686168144    1.69054348625982   -0.23244062293557
H           0.88049727654353    1.60400161238559   -1.04625184495285
