    19
        -40.92218952
S           0.30226101835173   -0.66076260520697   -0.90131196600262
O          -0.60604095256631   -1.61115392865085   -0.25997392516183
O          -0.39877206742200    0.55268514497327   -1.30910502439117
O           1.43670872899791   -0.34444802055062   -0.03945333124096
O           0.84303987019339   -1.36419116763509   -2.18027437262411
H           1.43668779979839   -0.68186360447786   -2.55714290317130
O           2.09388518511438    0.94376550735701   -2.36239769812998
H           2.38718977487441    0.76511664388949   -1.45916911414990
H           1.21428476442342    1.33194453221654   -2.26369111083472
O           0.81688039963193   -0.07309493302188    2.46316294281975
H           1.14262332434077   -0.10544055597964    1.52339981179551
H           1.31955791431407   -0.73628125858008    2.94104653593359
O          -2.16262163149331    1.38031129235416    0.40133456223749
H          -1.47601244206337    1.17280176254854   -0.28847671138417
H          -3.00707399527494    1.37437913954449   -0.05449092112807
O          -1.55323544789348   -0.63116054672889    1.79874499792561
H          -0.65068118863219   -0.37642220686571    2.23716921074649
H          -1.91099879613666    0.23816784474713    1.36501802157782
H          -1.22768224855655   -1.17435302993569    0.94561100518283
