    19
        -40.92071398
S           0.29783005351743    0.62157400299016    1.31271935837847
O          -0.06020724850332    2.01204540478356    1.47404495713324
O          -0.83217196632656   -0.26193722455383    1.14007102348307
O           1.27325551068612    0.43324419201542    0.22068164676847
O           1.04668695449098    0.18689615392605    2.63435037639298
H           1.46700030714781    0.98857259949909    2.93282388121331
O           1.65112377226125   -2.12825881750459   -0.48075442107510
H           2.46272392707879   -2.19947703503223   -0.98531118620628
H           1.63133065987655   -1.22383222175697   -0.10941137288671
O          -0.93172851901208   -1.75828393396353   -1.01729187597182
H          -0.06045138966572   -2.20298656234412   -0.94615171963437
H          -1.08302898417909   -1.40076474928359   -0.11194313457824
O          -1.85361195052178    1.89283382050227   -0.42910561138881
H          -1.23081877194488    2.13134263354456    0.29776028251472
H          -2.49045215459169    1.29571002924826   -0.02556049073391
O          -0.23612740399613    0.48651807614168   -1.79294445715687
H          -0.95780972913252    1.11307093610519   -1.40862023515841
H           0.51083014132045    0.54732620414772   -1.09183616791735
H          -0.60437322544972   -0.53359351652761   -1.61352088508652
