    19
        -40.91842144
S           1.15001858300094    0.10517918388703   -0.04245247172156
O           2.14527179739716   -0.28475469612024   -0.97861131563863
O           0.00561144074150    0.89062402441573   -0.77174503604736
O           0.52302098335711   -0.96448550185078    0.70024512673781
O           1.67214168195096    1.16438374060995    0.92542557447760
H           1.07193442772246    1.11311912428167    1.75802412494537
O          -1.74147064621748    1.98394054847152    1.06488318902621
H          -1.20737914067069    1.68527905838501    0.31050047860770
H          -1.76848433572604    2.94193829331971    1.02469674952715
O          -0.03418836169874    0.75721253166008    2.73851854490357
H          -0.80471839500909    1.22065206545232    2.34596090306072
H          -0.09445602719255   -0.16140866990871    2.43987635733254
O           0.71209405627191   -2.60275990623040   -1.44729310670006
H           0.61116275308579   -2.32671146477355   -0.52159489662825
H           1.55378426308023   -2.21825384983155   -1.71901289935436
O          -1.04518063573607   -0.84657692394536   -2.29248597935142
H          -0.41984516402158   -1.60305851655495   -2.12961030776002
H          -1.89943585290846   -1.12157996747391   -1.94998893334245
H          -0.42988141738150    0.26726091616094   -1.45533609211673
