    19
        -40.91855628
S          -0.74822905511989   -0.55895264043255   -0.69595061453995
O          -0.14901892224609   -0.91572832632724    0.57537036031403
O          -1.56883673749936    0.71980790721940   -0.51699395537492
O           0.16988467544205   -0.45276678613199   -1.78095143959288
O          -1.82937297421379   -1.60369873052596   -1.03914730675632
H          -2.28372027123157   -1.80767873139320   -0.18221476421434
O           1.80882732867241    0.94965308579039    0.98678830281011
H           1.22972991225487    0.17119726401554    1.01930960667967
H           2.35830895391349    0.82497718516764    0.18788221157511
O           2.76157839629628    0.30715162935629   -1.46112141697563
H           1.85134151166025    0.09013568064726   -1.72892341394458
H           3.30189957577263   -0.44505669809069   -1.70866634649747
O          -2.39212100135186   -1.98700782573772    1.46815887294137
H          -2.29947277485011   -2.88249226045887    1.80281908528755
H          -1.50789359103083   -1.57636743681241    1.50335491764554
O          -0.05858520844673    2.57776943182494    0.24727421318100
H          -0.41777085286202    3.00367828922320    1.02916180236229
H           0.74914673436313    2.05834952481299    0.54793574784653
H          -0.97569569948724    1.52702940790276   -0.25408585275315
