    19
        -40.92246922
S           0.14224650525452    0.90920760184847   -0.54730050619833
O          -0.38108227190348    0.74656801638227    0.87723380239016
O           1.57228934627370    0.70589449734819   -0.54892914082511
O          -0.59158415030392    0.07822656145671   -1.45321816437677
O          -0.16644442172986    2.39119662137767   -0.85332120340220
H           0.41934594931241    2.89009929891269   -0.23057341543763
O           1.60924907171704    2.92670918129221    0.96975054251022
H           1.22809726061490    2.61489073101849    1.79537423673571
H           2.03191061985591    2.15784951799419    0.55356963930988
O           1.33799133965332   -1.97972989153270   -0.40209734838809
H           1.64388905641680   -1.05957216056424   -0.47757476221542
H           0.93836143173954   -2.19472957633341   -1.24860782610065
O          -2.36207016441995   -1.79232008918323   -0.68175070462159
H          -3.24572643934071   -1.42084666402927   -0.69279832227864
H          -1.78341912169792   -1.14484337443482   -1.12750580251140
O          -0.64032346509828   -1.66128367381436    1.32886131752710
H          -1.39662289669409   -1.88024216887161    0.73411152969240
H           0.16104585332336   -1.97867724813692    0.84561138960844
H          -0.51715350303058   -0.30839718302694    1.15916472895238
