    19
        -40.91628486
S           0.99001044338539   -0.38521386525526    0.72793367210045
O           1.28984649166515    0.17149302863543   -0.66747842619871
O           0.00646143878385    0.46501457500790    1.36255268696170
O           0.65322269999309   -1.76941035040231    0.65105086632901
O           2.33405923323354   -0.25327605169856    1.48140870201570
H           2.39253682141290    0.68363488771341    1.79778589999140
O          -2.22402842288968   -0.32376311213654   -2.17301233063162
H          -2.09607264087183   -0.39258510414846   -3.12087952381882
H          -1.87769314905674   -1.16204676360117   -1.79209718776065
O           1.79785800287523    2.14759877463305    2.32819112424608
H           1.77237378446823    2.27117802752787    3.28010304208477
H           0.92463344244671    1.80306402954770    2.06089177994724
O          -1.17163816406391   -2.55976572642894   -1.14562275490192
H          -0.43881309303658   -2.32647642531488   -0.54374418596848
H          -1.73461655657198   -3.15938911252240   -0.65196815526198
O          -0.75931759436178    1.55139795118106   -1.04287709183663
H          -1.37655985007891    0.92749857843933   -1.50839603288748
H          -0.99106164308800    1.50755395430133   -0.10653757990799
H           0.50879876576108    0.80349270453955   -0.93730449450166
