    19
        -40.92071440
S          -1.36745589497164    0.25879621739652   -0.50850876773126
O          -0.97168335056707   -0.90101544510812    0.31486062310590
O          -2.18019750167885    1.19067664646042    0.23880589547718
O          -0.20936005128296    0.85540055182095   -1.13305287329915
O          -2.28174537312932   -0.32529845955815   -1.65727377259464
H          -3.15776015512691   -0.30919888074132   -1.28244694600114
O           2.16266696100601   -0.11292782991237   -0.55225475069056
H           2.01063343143812   -1.05669479465735   -0.77081609169840
H           1.41957150749552    0.35089978300166   -1.00305621295961
O          -0.08384034380058    2.34949474963540    1.29573159852763
H          -0.97689146643667    2.04257234904237    1.01078295816017
H           0.30614599115795    2.74478156365398    0.51048689060408
O           0.90636433366788   -2.44721057192113   -0.81487924754856
H           0.91290052755381   -3.30431546120615   -0.38619903736984
H           0.11374834702653   -1.97673560419374   -0.48818691865644
O           0.96492185814073    0.05619419773512    1.60666625840056
H           0.14412548725355   -0.44042379621972    1.24213455756590
H           1.64442223116170   -0.00925471858542    0.74473973329078
H           0.64343345107859    1.03425949333114    1.63246609342050
