    19
        -40.92315428
S           1.61431786581483   -0.15339602647388    0.50234839544485
O           1.69572546304990   -1.07487235742249   -0.63395816989917
O           1.00538701226421    1.11033953634841    0.08268040008990
O           0.95905575037730   -0.71087684326716    1.65478975606718
O           3.10706951043816    0.15968296224615    0.89416776740759
H           3.54173989625153    0.19141018106637    0.04761986216460
O          -0.80736156516804    1.07775323933813   -1.85533476385999
H          -1.54387504740525    1.45842039041901   -1.36529234975408
H          -0.01803404689377    1.23634760872105   -1.29214224330455
O          -1.48163425028595   -1.30839775872820    0.90019769295297
H          -1.77750851683899   -0.37541533692772    0.97187827055532
H          -0.60572236507605   -1.30185879139143    1.34910563129316
O          -1.47763196481743    1.36907011576539    0.99147788560262
H          -1.53657373862762    1.74582721786667    1.87059318377221
H          -0.52095820592135    1.35325541653721    0.76595512312099
O          -0.63076276705349   -1.42369946951185   -1.43953439529696
H          -0.80649207747583   -0.46513863073159   -1.76903588107570
H           0.38433718730075   -1.40265715221389   -1.19456607910328
H          -1.10107815057651   -1.48579431113684   -0.48095009615900
