    19
        -40.91941571
S           0.68026971420106   -0.36079451557959    1.42483974747150
O          -0.06704101086685   -1.59389623199594    1.14874706597138
O           1.75551631556288   -0.18119261578973    0.46630585134692
O          -0.18629921060829    0.79177984420441    1.52672438873679
O           1.34077654761759   -0.56206390563924    2.84005032658546
H           1.90918831212657   -1.31415132451648    2.70646012914842
O           0.95021964850858   -0.47914614374561   -2.06076518726919
H           0.82441823744887    0.48762172459805   -2.12627285977144
H           1.48308451465548   -0.56830964094957   -1.24250774785625
O           0.72559758296805    1.96112558593238   -0.98524281849603
H           1.19441984519856    1.46155552593526   -0.29938439405579
H          -0.03684482646216    2.35129355755083   -0.55300194350706
O          -2.18754939319116    0.80620326538380   -0.12387324383520
H          -3.00990773632965    0.74870493294828    0.36604930468413
H          -1.46474695613309    0.88704762704445    0.55125155309156
O          -1.16373150352946   -1.33582913522639   -1.05651217901085
H          -1.69587311412259   -0.49289445713428   -0.83846391982991
H          -0.30993941856057   -1.02103910022951   -1.61932722864434
H          -0.74155756845767   -1.58601499281071   -0.12507684474908
