    19
        -40.92135329
S          -0.86043250498435   -1.12175824694925    0.66228990045003
O          -1.24885125629024   -1.41035363376666   -0.70065552517317
O           0.46289996423527   -1.65938996425299    0.98125029716200
O          -0.95801328700084    0.28966026065153    0.99938023807264
O          -1.88041993846656   -1.86567500354050    1.60919121344354
H          -1.83946656890767   -2.76532168151811    1.29987158277536
O          -1.18789467147462    1.82545881206376   -1.19792884063019
H          -1.20119323863605    1.36167861255069   -0.33800056324325
H          -2.07042104255194    1.73878279196108   -1.56246588281040
O           1.33657189643083    1.55580240796938    1.36070714036090
H           0.41782652460798    1.20611024871721    1.31351526477378
H           1.61329483797444    1.47533243056524    2.27535427354392
O           0.46945554378825   -0.02139884833470   -2.10751377196895
H          -0.17800445373239   -0.68823654904006   -1.77699456689254
H          -0.00153327794650    0.83429589005536   -1.96530737685955
O           2.10261086647483   -0.25792501465688   -0.26329123064180
H           1.54466500285106   -0.96102091663407    0.25953067813482
H           1.49455385643624   -0.11021405698535   -1.15983317588570
H           1.98435176049227    0.57417245975439    0.31090032452066
