    19
        -40.92246907
S          -0.45871231316473    0.89990810355812   -0.34709019040839
O           0.83295833906242    1.53550775577674   -0.46572154543841
O          -0.41143515544984   -0.45598481565534   -1.04648394411712
O          -0.94844832396294    0.76142493297619    0.99115033747393
O          -1.49341940477731    1.67820777909222   -1.18884087314557
H          -1.05421563882754    1.78296399197011   -2.06990430051994
O          -1.34807849512433   -1.60163570732633    2.20959142346235
H          -2.26376923451862   -1.86500908671763    2.10428582013378
H          -1.28991537578107   -0.67464921501368    1.90947446602729
O           0.27094274988395    1.56926505156677   -3.09583367013148
H           0.33896691206107    0.64047241889629   -3.33445219706357
H           0.86076237728304    1.70285140224647   -2.33596374400001
O           1.92156670663169    0.00850531005479    1.47714587695407
H           1.43952038069589    0.29884306064453    2.25551701135300
H           1.73118568538328    0.66509059715668    0.78541154905357
O           0.61789990534980   -2.07798342976910    0.49647518018635
H           0.04473514660594   -1.23712988214661   -0.42125086713008
H           1.29610913579391   -1.47904154779090    0.89325532064928
H          -0.08665340738956   -2.15160672944866    1.18323433665416
