    19
        -40.92071445
S           1.25397309657993    0.79000623034348   -0.00652801917330
O           1.13514262774299    2.21079669309048    0.22787780771696
O           0.88711094399537   -0.02716303317648    1.12692939650557
O           0.50680057259375    0.37206942712650   -1.20941739677174
O           2.77455375150936    0.50557901361809   -0.32817374072364
H           3.07348032906719    1.30754188207386   -0.74743494504974
O          -1.00884709985801   -1.82080962904879    0.81818966497466
H          -0.64426328874428   -2.31140431110116    0.05158054191373
H          -0.23287030830289   -1.32146096486524    1.16261453142048
O          -1.83564330955582    0.22681224159989   -0.30050787520494
H          -1.63977698110729   -0.72489376648677    0.21110233882182
H          -0.96837264369335    0.33909746615856   -0.83793856631841
O           0.26918091876425   -2.28714753019077   -1.47295595538751
H           0.04086047340296   -2.49764290041015   -2.37951871119558
H           0.50040809019136   -1.33720151939469   -1.45587330322927
O          -1.16062508868550    1.93460138342460    1.45449742816858
H          -0.32505644524577    2.23443314592627    1.02420887575854
H          -1.74741418542746    0.95424458502549    0.42386421417737
H          -0.87864143319275    1.45254160636128    2.23748371362910
