    19
        -40.90992517
S          -0.87358552751804    0.49092774550296   -0.43086254531291
O          -0.01411156647079    0.62106645976234   -1.73213770550569
O          -0.33684689081356    1.42158103963743    0.51197484839898
O          -2.25659485267144    0.59673535367979   -0.76088196266133
O          -0.58118588669992   -0.95082378024471    0.03365893694701
H           0.43048391696967   -1.04711056521913    0.03507030168232
O           1.95769881054349   -0.79508630546179   -0.05862662704287
H           2.05224009149497   -0.14926457128548   -0.76499724450149
H           2.14789244091306   -0.33353955742119    0.77900153303491
O           1.70492083954743    0.80410609146531    2.09038034952579
H           1.91878049334259    1.43706387516712    2.77782253772262
H           0.93589161141924    1.16230308661842    1.60123552984992
O          -0.03380414852787   -1.32958088404091    2.97786797459105
H          -0.49857336425766   -1.46893467573793    2.14951015565902
H           0.65282740943939   -0.67470839221155    2.79966266470870
O          -1.91962395415990   -0.25745550418891   -3.23646297712565
H          -2.30315386084041    0.32411105451295   -3.89792458338665
H          -0.57412375262762    0.25323532970895   -2.46772422402235
H          -2.40913181907390   -0.10462582026924   -2.40656698256745
