    19
        -40.90992520
S          -0.36527174541239    0.90217417042625   -0.49168993202351
O          -1.43597662334276   -0.04113552440810   -0.57495379223555
O           0.63783879085282    0.54815088659380   -1.63934442540736
O          -0.69026164456850    2.28902749015203   -0.55393609177682
O           0.46266496708317    0.64140125194275    0.78364789883892
H           0.86183916226399   -0.28684956282709    0.67593741372735
O           1.24249493333840   -1.70281814251506    0.17053930918368
H           0.45482602834080   -2.22896657285728    0.40195629089323
H           1.25667439493084   -1.62169817445966   -0.78768137190525
O          -1.31566556874214   -2.41516841447786    0.60473128232321
H          -2.12408959729100   -2.93033182604468    0.60998718734002
H          -1.51619555797635   -1.57326706727114    0.14652954829403
O          -0.92769304743099   -0.85252031185075    3.00683314409740
H          -0.46394729383832   -0.11373911911911    2.60600477708274
H          -1.05450013626815   -1.50728674016242    2.30874108269239
O           1.57204558124651    2.95290771489465   -1.74273233974157
H           1.17343133515052    1.37146311181589   -1.79815600670120
H           1.44767263399209    3.47287974701031   -2.54083673274016
H           0.78411338761361    3.09577711310488   -1.18557723195813
