    19
        -40.90992506
S          -0.15053160116017   -0.62107654905139    0.88246504435913
O           0.72141065703682   -1.68718970713168    0.13938519465334
O          -1.41495643844252   -0.58610217352511    0.21676019778029
O          -0.13995257729956   -0.88956162937293    2.28277557665212
O           0.61395951478012    0.69331034672311    0.62127797236743
H           0.78257156254267    0.72726246245433   -0.38021780866328
O          -1.05273835870916    3.08312020871264   -0.16667124871843
H          -0.43437612377890    2.58900203779713    0.37652976751925
H          -1.34111212083138    2.48421990771352   -0.86689247117886
O           0.81190638609595    0.43759203778845   -1.90356561324430
H          -0.07356797515559    0.72780422685623   -2.19089413427708
H           0.82905112158234   -0.52196230187451   -1.96640306635241
O          -1.83447527586043    0.92400703378877   -1.92468274500102
H          -2.74053915512837    0.98767134669662   -2.23115313204908
H          -1.83986778250794    0.34652132730957   -1.13388598791662
O           2.18991886941579   -2.12948586455318    2.21613785510373
H           1.46911220538027   -1.61065981067794    2.61979450401723
H           2.17278108031644   -2.99773245969734    2.62687371260967
H           1.43140602167231   -1.95674043987014    0.78236638228991
