    19
        -40.92052673
S          -0.74237776358134    0.39238556024489    0.02341633890704
O          -1.92158416903160    0.26509769000820   -0.94525072539900
O          -0.49260282154676   -0.86078535219759    0.69122548620716
O           0.40018312573869    0.90917852826813   -0.68794378197319
O          -1.25270084037038    1.41257942514717    1.04501658753721
H          -0.78261990376609    1.20166463912100    1.93429288965729
O           0.17002815961809    0.62553284494580    2.97641587049499
H           1.02617720539529    0.89559302699608    2.57237415152273
H           0.06776910545102   -0.30861171614750    2.75939815630446
O           2.14002003461394    1.32006628446333    1.32199080947670
H           1.63715324494618    1.14122701746642    0.50499208047152
H           2.47704659456474    2.21488370905611    1.24282426478214
O           0.04709968451351   -2.47620604579021   -1.39037875329352
H          -0.50076343677394   -3.25932983904460   -1.30572086390053
H          -0.04759675567466   -1.98148447694650   -0.55446618353970
O          -0.56701056534219   -0.41568926526109   -2.96403353350169
H           0.15735682281340    0.18986023709638   -2.76715796523945
H          -0.28886807690304   -1.28509486037819   -2.59524760889931
H          -1.52670964444115    0.01913260253947   -1.86174722996773
