    19
        -40.91915187
S          -0.86117392818975   -0.40296926019561    0.79891859407034
O          -0.41445604401537   -1.55677247504228   -0.12621754091469
O           0.32775513010886    0.26798970999796    1.27329217237587
O          -1.82451115557946    0.42061014929483    0.15189822674969
O          -1.51373436310981   -1.17305830639187    1.96274431231309
H          -0.76298081696703   -1.66446981296258    2.38179176222996
O           1.12508796707825    2.51492631858811   -0.04670904002982
H           2.07010489518540    2.40505604898594   -0.16707317396507
H           0.83519182604480    1.79169800870900    0.53651512583995
O           0.87018084165052   -2.06220632463749    2.48979333581228
H           1.10112311250182   -2.64521072646487    1.76144622950996
H           1.07931259609902   -1.15850977463496    2.20099984852408
O          -0.68023146570886    1.78739778618713   -1.91938480728188
H          -1.35299930021464    1.50560187507120   -1.27986628449315
H          -0.01838471501347    2.26669788001945   -1.38176052239104
O           0.30968559185250   -0.55557209584499   -2.31401004161123
H          -0.08988606057214   -1.18616072251190   -1.03891466262495
H          -0.17782057808358   -0.95320921512278   -3.03932127254597
H          -0.02226352300866    0.39816091701272   -2.24414226165275
