    19
        -40.90719774
S           1.35130312721067   -0.15390529869649   -1.16616297019831
O           1.42998672671095    1.21779121503099   -1.54301207005938
O           2.11968787885508   -0.58813054629914   -0.03750762101831
O          -0.10315055739667   -0.58542962220115   -0.98619300628126
O           1.78743784489465   -1.01845502631833   -2.40666228528948
H           1.92026965789108   -1.91283415150443   -2.09730535550376
O          -0.77321956357136    2.77207535394117   -1.10728453046489
H          -0.46609306123723    3.67021782586386   -0.96910229682697
H           0.00705072240196    2.26812524761238   -1.40507779010968
O          -2.15609021730953   -1.17589500715143    1.52006737035525
H          -2.43678957514983   -1.63212047481762    0.72482291103257
H          -1.25051243003141   -1.49980431138100    1.70233747977036
O           0.51071332475912   -1.76450533574254    1.82625207553446
H           1.10596488528489   -1.37616792859163    1.15997205764983
H           0.79646553751166   -1.40173232687464    2.66725212590264
O          -0.78357395637692    0.95794210138733    0.82401556536619
H          -0.43349995861712    0.03516233013526   -0.18906019574040
H          -1.07875515442147    1.71907663917127    0.28090231554457
H          -1.54719522141074    0.46858931642880    1.20174620032428
