    19
        -40.92158947
S          -1.45200299210783   -0.22730788561024   -0.14335136661943
O          -2.00772159584233   -0.34639686495236   -1.46381534495023
O          -0.56788379045411   -1.35090639475210    0.19431612495942
O          -0.79837098998994    1.04141423951068    0.13988778150301
O          -2.66166771453664   -0.30117450384435    0.87755499363607
H          -3.25975709985804   -0.93006946481024    0.48554324739904
O           0.46228363662832    1.17397662026161    2.43099739303639
H           0.79745817253209    2.06493211758312    2.55061889850109
H          -0.17873913379804    1.21112841242886    1.68237274022671
O           1.61823390698000    0.91560025744905   -0.98500889242349
H           1.37321090908558    0.30469715823108   -1.72005936088619
H           0.75902103706968    1.28816412114322   -0.70490643058138
O           0.39272497709259   -0.87983869097492   -2.48533849636064
H          -0.53920653349996   -0.65729135846694   -2.29325345259050
H           0.51060896115967   -1.77729686171155   -2.16520036038847
O           1.64537861563895   -0.58581454991068    1.00166233133852
H           1.82172427731019    0.04252625079167    0.15212367138035
H           1.34702971233710    0.05434234363445    1.73125407009263
H           0.73767566425062   -1.04068494598281    0.71460244273212
