    19
        -40.90719280
S           0.72387682868621   -0.31918291982734    1.39390795146884
O           0.30910457181436    1.05852869666525    1.44119465341349
O          -0.31142249449140   -1.27725632617072    1.18930620838567
O           1.87635119594352   -0.51510236244754    0.42841645340258
O           1.40884993627763   -0.63586571394803    2.77282418517999
H           2.02911485360216    0.07143570177337    2.93556961700623
O          -2.01004969832031    1.49066214281086    0.04262802343704
H          -2.78257497182403    1.51329253052314    0.60937289692453
H          -1.23621164196233    1.41202807739544    0.62760744103055
O          -1.51262189098791   -0.91225310561572   -1.22264883942284
H          -1.34451719283292   -1.26653889150770   -0.33611828349835
H          -1.78140849832301    0.00854522374346   -1.06532236965008
O           0.60075260071733    1.51907185115568   -1.30077605737898
H           0.70615667178024    1.60400682083615   -0.34842946197664
H          -0.27740928152896    1.85215886739804   -1.50282497006101
O           1.00741518984989   -1.37553610023062   -1.73319163056920
H           0.98642483794582   -2.33385231487681   -1.66317633769250
H           0.05534634313770   -1.07179369812890   -1.72656135510139
H           1.55282264052216   -0.82234847954956   -0.54177812490026
