    19
        -40.90992514
S          -0.83695810006545    0.60716410688411   -0.35003309021564
O           0.18577091401046    1.53732262261340    0.01332297619891
O          -1.54942729936634    0.17971747333605    0.97602905307698
O          -1.81287328379195    1.02509602407941   -1.30179032092718
O          -0.19691887791956   -0.70885823389375   -0.83824613789926
H           0.31016801038604   -1.08805250326923   -0.04349504732695
O           2.60218575486073    0.74578240509303    0.77265842360655
H           1.77537118660602    1.18548781102207    0.48635237743607
H           3.26421456387196    1.43192214686420    0.87230391173936
O           2.65311654023010   -0.53724841578383   -1.81798540157775
H           2.79375023726708   -0.16537239285108   -0.93817417524217
H           1.71386634161566   -0.72294680543610   -1.88795175548623
O           0.96631371012702   -1.31298797486737    1.34373446831397
H           1.75673498877183   -0.74371625808032    1.29939583270111
H           0.35836402612673   -0.90431700079873    1.96693838232913
O          -3.73697026486903   -0.44242491032667   -0.24522075506707
H          -3.26920376352052    0.03292643655758   -0.95722904251745
H          -2.43986320656051   -0.17353879214753    0.70664549735522
H          -4.53764149774587    0.05404424106597   -0.05725519645318
