    19
        -40.92182557
S           1.11933936637904   -0.32587883715808   -0.16248060983361
O           0.89391396592765    1.04598796257456   -0.53245604684326
O           2.46855825218152   -0.75909825948377   -0.01501333408341
O           0.34812524355622   -0.66797695851654    1.10596590938526
O           0.40804232436711   -1.19221986315968   -1.26116965998457
H           0.65408191215312   -2.11672206926524   -1.01532059369283
O           1.43339005007741   -3.22356597442319   -0.00344649972661
H           2.16108384272933   -2.58741648915817    0.10066947318338
H           1.01665317234245   -3.29884280481562    0.85934157619466
O          -0.38171907994700    2.83982646036280    1.08976678645630
H          -0.67002395399323    3.58359955849086    0.55668418944492
H           0.24974338655852    2.33973903973288    0.54518923959906
O          -1.60316480383169    0.81247166236704   -1.54545632073736
H          -1.59400006932243    0.01120996640470   -2.07358511990350
H          -0.66839891979128    1.02706478279034   -1.38026995860003
O          -1.79326911637213    0.57827891305508    1.10183650587859
H          -1.98139821996838    0.62913135505497    0.13564066596770
H          -0.60828033346722   -0.16747260416530    1.15998539811612
H          -1.45267703958137    1.47188415931673    1.33411837916942
