    19
        -40.91893384
S          -0.78414112704061   -0.38745223695374   -1.50093541679290
O          -1.58116082877879   -0.20210026117539   -0.30420639718413
O          -0.65801235271131    0.77740707869756   -2.33953191644568
O           0.52204478660439   -0.98214751709543   -1.17865568473460
O          -1.54503514739053   -1.48160760598717   -2.36385498129586
H          -1.24978217016603   -1.29918232153103   -3.25085015205477
O          -0.16236110482579    2.18081932937616   -0.15897847334936
H          -0.95281695240488    1.88153996373546    0.30030524151498
H          -0.26143559509573    1.82167144434541   -1.06387114500817
O          -1.00865360112110   -1.09406157105399    2.05910928052867
H          -1.34417390430838   -0.72381627542765    1.20185205071129
H          -1.45084934829925   -1.93627912784526    2.18019680668261
O           2.00010701684650    1.39710695689669    1.10363096332613
H           1.19042117330890    1.78022231348730    0.67111387595291
H           2.73259495651323    1.58883504411246    0.51469036973643
O           1.35476931653411   -1.04796333175950    1.13499085612079
H           0.47491772497978   -1.10618964448528    1.65792727050108
H           1.03360951248738   -1.09496861185028    0.11462865989535
H           1.68995765484946   -0.07183361544949    1.22243879187897
