    19
        -40.91597488
S           0.87246714150344   -0.28525109374183   -0.61200040802618
O           2.03585847463378    0.07792135429988    0.14260029468448
O          -0.09626888606449   -0.98056943903504    0.36494547377763
O           0.21180638119613    0.77003632876102   -1.31445708212775
O           1.23332177465938   -1.40492842084645   -1.62323854483185
H           1.77084291452165   -2.05501012945075   -1.10806298355379
O           2.51300398387454   -2.54869568437521    0.34336393707520
H           2.67050099732560   -1.60840375061954    0.53480756671531
H           1.86916712067566   -2.85326373737312    0.98801946764348
O           0.09381002769779    2.12827019866390    1.11137044861632
H           0.84086767101019    2.02657607080879    1.70366613808137
H           0.38711066260249    1.78594321367226    0.25877753366767
O          -2.15356077464788    2.03305718396530   -0.59011349498910
H          -1.46418909622988    1.83094566481542   -1.23765651495648
H          -1.67402259737019    2.37305113934847    0.17731831652408
O          -2.53941593260975   -0.47392645148675    0.03490450419132
H          -2.51588377126700    0.48404833729826   -0.25278757042620
H          -1.10075778740776   -0.81251042911240    0.17776112004993
H          -2.95465830410083   -0.48729035558891    0.90078178788236
