    19
        -40.92120607
S           1.25368520445665    0.12689443731343   -0.56152207907036
O           1.42035942719677    0.56440525360405   -1.92011901359329
O           0.79408080234333    1.18698665094289    0.33632865381715
O           0.46419523515039   -1.08199761149235   -0.39118241103749
O           2.70548875255146   -0.26987765598574   -0.02642040916216
H           3.29646310543238    0.30080011706612   -0.50853520388077
O          -2.15194474595361   -0.52265870436589   -0.30450809026358
H          -1.35513037624276   -1.06829649118981   -0.44427450331536
H          -2.06029385634963    0.18118885616550   -0.98205322692533
O          -1.16752283168021    1.19243612264970   -2.08703508136881
H          -0.20475744672107    1.03171972539277   -2.05022884359770
H          -1.38382487270916    1.31900178616830   -3.01330319859182
O           0.43261089674076   -1.45909565758312    2.20042096961254
H           1.30805119133532   -1.26552860575154    2.54083790853777
H           0.52448981282600   -1.51227035802441    1.22120223652667
O          -1.13610369783664    0.51100483560907    1.72707629793385
H          -0.66113318265288   -0.28294958502330    2.14246873089811
H          -0.34903741575820    0.94833498342930    1.18011691568742
H          -1.72967600154472    0.09990190192329    0.94073033796451
