    19
        -40.91907711
S           0.61451602476087   -1.44648706324240    0.55822755024166
O          -0.25500332025343   -2.04168389393284    1.54575344892079
O           0.05774374006266   -1.39704060944598   -0.77418069215862
O           1.08439590159189   -0.10996322635997    0.98009465502023
O           1.91861203751131   -2.34094821267525    0.48390983608127
H           2.05400589806880   -2.65913347609898    1.37269394324140
O           1.47898369849257    0.65933153881538   -1.61887600766102
H           1.87552329766289    0.67360495793921   -0.73821848316002
H           0.97517652247818   -0.17859171071759   -1.61574601632243
O          -0.47510332534867    2.35851690421778   -1.31902423294232
H          -0.12588768264508    3.25051703572894   -1.36124472300021
H           0.27073634045574    1.74265031996651   -1.57799878955269
O          -2.28673393202641   -0.74267507424721    0.51498647998022
H          -1.74680936673337   -1.34523580541917    1.07397951186950
H          -2.02853928369188   -0.97852932142193   -0.38559603859083
O          -0.92770606054111    1.34127575158805    0.94960705175193
H          -0.82218679177612    1.83304340732561    0.03946445871661
H          -1.62963378183917    0.58656334183488    0.80720868180910
H          -0.03208991632190    0.79478513621348    1.06495937566836
