    19
        -40.92315240
S           0.27769238844534   -0.72920249682960    1.50780489224526
O          -0.49736251776693   -1.34707965958060    0.43056173205350
O           1.68300840219419   -0.60528453293479    1.11126204521353
O          -0.30991956005943    0.50599271147137    1.95266936378495
O           0.27649369723249   -1.73626054569700    2.71864848422595
H           0.98726197267661   -2.32877723693837    2.49421793404323
O           0.23719034080934   -0.92785316696873   -2.08477423185070
H          -0.57740962880762   -0.52438886227756   -2.40291814804751
H           0.00452641650895   -1.31728406685070   -1.21327362610636
O          -2.05446255217072    0.40563174631282   -0.81874165506707
H          -1.59452833756400   -0.27769911399700   -0.28214645442987
H          -2.91287974818107    0.52909359202782   -0.41128715908749
O          -0.17151296252775    2.16209777006936   -0.07705232592653
H          -0.94741969701425    1.75522633728489   -0.51901922024851
H          -0.19852121328976    1.77440138565662    0.82734234894638
O           1.72113482901246    0.79259059792213   -0.94534593105473
H           1.86395880849351    0.22896239630779   -0.07787952368820
H           1.23074104330820    0.13590687403266   -1.56731254353570
H           0.98200828192413    1.50392627390205   -0.64275597584502
