    19
        -40.91596520
S          -1.12361788746952    1.26596447909169   -0.40279829388986
O          -0.41418881709759    1.23659081696933   -1.65951382007615
O          -2.22054011572685    0.31925229284180   -0.33325909561498
O          -0.22893135808713    1.14530542283053    0.75613033458935
O          -1.75117136991208    2.71517571121071   -0.26207280628313
H          -2.20380185163784    2.82501633777997   -1.09235648380300
O           2.33529594622092   -1.33397348008702   -0.07934277218672
H           2.28664319840296   -0.40819787162387   -0.46287227073939
H           3.20407999842452   -1.42040894450208    0.31724614762343
O           2.04981029546443    1.15448962000275   -0.77620089208043
H           1.23258868651481    1.18078851023526   -1.32127012878206
H           1.76832888950595    1.55327951396334    0.05502521109625
O          -1.66990618787956   -2.13342650290170    0.19936316526181
H          -1.94326708134008   -1.23013706441522   -0.12452048800343
H          -2.41084486052775   -2.46715192383875    0.70972393287673
O           0.31571076908439   -1.18276292861891    1.42356213736043
H           0.07113627030935   -0.17516015885395    1.23813072625684
H          -0.46167393333056   -1.70168341303536    0.97280089668988
H           1.16434943908514   -1.34296044704035    0.84222450970095
