    19
        -40.91892017
S           1.06141673848631   -0.46286418966243    0.19242074927277
O           1.05974842813612   -0.56464572681546   -1.24158330214362
O           0.77140517457024    1.00173287300628    0.57205400910991
O           0.16813712818127   -1.33359037915409    0.89439049351314
O           2.50096916271943   -0.68686623128788    0.71715244126432
H           3.06515925961591   -0.09192331847316    0.16284400054161
O          -2.91086839041729    0.54916541126419   -0.14815239711861
H          -3.84117945580705    0.32136667160106   -0.10593580878965
H          -2.46918802638880   -0.17514833279839   -0.64805511982212
O           3.21864210779803    1.04814407939740   -1.08685449795373
H           2.83607623122989    1.88463220405258   -0.80763383003569
H           2.52635799315696    0.58267738379671   -1.58283208677440
O          -1.54806987141176   -1.48847330484433   -1.22749339238533
H          -0.78965059402030   -1.17301183892590   -1.73496846868231
H          -1.15423277188988   -1.81601477759944   -0.40714170594456
O          -1.30379163252805    0.75478132081224    1.94391638993026
H          -0.06951872832036    1.03769207143205    1.18791312762379
H          -1.98800557152999    0.79677474966490    1.22894393481112
H          -1.13340719158246   -0.18442868546425    2.09101544357831
