    19
        -40.92246920
S          -0.21004781039477   -0.54179947663626   -0.89949863770003
O           0.37638480325024   -1.08106361372776    0.40261451210123
O          -1.62616033721914   -0.32010287477403   -0.72085906808102
O           0.53128977250419    0.59515520767399   -1.35489571296289
O           0.00654755655051   -1.71594429436938   -1.87885939659644
H          -0.58091262934741   -2.43094574483622   -1.52708877829405
O           2.42607925783376    1.83153184615251    0.09815299234019
H           3.28745815922915    1.48162159353410   -0.13555568514049
H           1.79759383318961    1.48636246535187   -0.56413956826258
O          -1.72315402770317   -2.99182935316897   -0.41541236095934
H          -1.29393320330649   -3.11515352653923    0.43592412799850
H          -2.12015809135201   -2.10575792537190   -0.39808261817614
O          -1.24581241593978    1.97728984436674    0.64464225871800
H          -0.86639670954860    2.55071348485619   -0.02599321172375
H          -1.60239337621880    1.20857927138387    0.16720938314283
O           0.77464902023917    0.82584583687272    1.91133055394567
H          -0.02596250759726    1.35608801491092    1.67856158699140
H           0.57571434041971   -0.28627701768781    1.13622518745542
H           1.51921435541733    1.27568625200911    1.44572444521164
