    19
        -40.92003355
S           0.85290273203571   -0.17805750213291    0.10907750929470
O          -0.09439212234473   -0.81063850111001    0.99184575212224
O           1.67209161309802   -1.22788632897535   -0.64540235597866
O           0.23189047694668    0.72100223886435   -0.83437984351129
O           1.93505677424472    0.54676175653485    0.91220660251856
H           1.53283873451311    1.30827724001812    1.46176253353415
O          -1.49472552840450    1.64946233235215    1.01228700769843
H          -1.65859074381675    0.78989135787171    1.41334275725235
H          -1.06270781684604    1.45041193527580    0.16340324471135
O           0.75739851270483    2.46350999624752    2.09980924345573
H          -0.17418954489131    2.26697681469643    1.81781651128711
H           0.99726017526065    3.29947358072681    1.69246872638631
O          -1.52265430217471   -2.27074251081478   -0.74316627779151
H          -1.53885927666947   -3.18717801419759   -0.45975954552640
H          -1.10576932719806   -1.76527545502933   -0.01895419432819
O           0.13765056171170   -1.39763757055851   -2.64366936940969
H           1.19076734963747   -1.38777827877119   -1.53791265363181
H          -0.59772528290143   -1.81772215709708   -2.14332667805416
H          -0.05824297491010   -0.45285093390927   -2.64744896002989
