    19
        -40.92123230
S           0.73099760290299    0.95024579508454    0.17589065709456
O           1.36825059136655    0.14284952550527    1.16445825884760
O           0.95956816888973    0.54174119178637   -1.19559858159556
O          -0.77939173222179    1.01631445584026    0.40248310410379
O           1.16566926712807    2.42075740640705    0.34557855552036
H           0.71350035764929    2.89283686151767   -0.39629592396670
O          -0.27170178175479    2.86643691239455   -1.77898845092915
H           0.12292191884599    2.00801867863000   -2.00266624214395
H          -1.16401309630034    2.68590152732698   -1.46945227141856
O           0.10882199631726   -1.99432115768154   -1.29745596679314
H          -0.04213803691636   -2.24505188101674   -2.21091016456552
H           0.55123954381815   -1.12344001491112   -1.31694325413885
O           0.16686534048456   -1.84987504043851    2.51863332077794
H           0.70463035374879   -2.62956015630211    2.36439501564102
H           0.69525400465982   -1.09260439367329    2.20455412440671
O          -1.59478286828014   -1.30207767393692    0.63075662230499
H          -1.10537274689023   -1.71748970630530   -0.11460995140688
H          -1.11562991170169   -1.59368051353130    1.44725678530843
H          -1.21468897173357    0.02299819327680    0.52891435289715
