    19
        -40.91033146
S           1.07445631579716    0.55616977334396   -0.05763466441735
O           0.95345558897942    1.89495796135617    0.44313517508743
O           1.51464284570953   -0.44029771617639    0.86858080741028
O          -0.25964248199494    0.11052864102614   -0.69069217554574
O           2.01469945363133    0.54652722545116   -1.28761563585125
H           1.84144066331360    1.40793227060916   -1.74798217101211
O          -1.75271608930519   -2.38316616129157   -0.93708415626929
H          -1.01804644360991   -1.79720491269706   -1.15617446133687
H          -2.30368796695490   -2.44079819438374   -1.71990522528893
O           1.36090883756052    2.98043271225049   -1.90437899568057
H           2.05881871613058    3.63999591811779   -1.88780429178416
H           1.03612540422929    2.89202335527823   -0.98541281606652
O          -0.20687286005560   -1.30634923937975    2.72848776331213
H           0.52961429580330   -0.96433305118620    2.18558713273487
H          -0.06082844126736   -2.25125139555309    2.80986174392739
O          -2.01978660724273   -0.44894408479188    0.99159227399560
H          -2.26524839242913   -1.27516696096849    0.53983800413985
H          -1.48063876882853   -0.71777611020755    1.77387543509905
H          -1.01669407946869   -0.00328005080329    0.03372623756022
