    19
        -40.91740228
S           0.52272683107835   -0.81655670304539    0.79247504362214
O           0.96492708397435    0.69999926794763    0.71024121085316
O           1.01405820578747   -1.45238399495676   -0.38975701557321
O           0.95756265278209   -1.33139332521980    2.05454172424236
O          -0.99407898509296   -0.74355836395781    0.77898545965710
H          -1.38617058821694   -0.47472662366129   -0.18510035908607
O          -1.79232248198829   -0.06750178700585   -1.46978455738414
H          -1.31046483174090   -0.66664380464413   -2.09031510456657
H          -1.37259397996365    0.81263937017338   -1.57551706609934
O          -0.30882723137754    2.16849747810703   -1.28680538285173
H           0.32444118690504    1.74029147174956   -0.69146336776579
H          -0.64495320277238    2.94211878673407   -0.83023772114147
O          -0.16929014269905   -1.70264193216272   -2.77813724052515
H           0.42960762504955   -1.63960253944492   -2.00958595996950
H          -0.37114331879465   -2.63374868421685   -2.88636913591584
O           0.82060007881737    0.97704665742552    3.27449560300199
H           0.90997322673393    1.01690343502429    1.65054134701550
H           0.77957409015534    0.00455067400222    3.17006915352518
H           1.62637378136288    1.16671060715338    3.76172335896024
