    19
        -40.91965999
S          -0.14173357267912   -1.70385869099468    0.09174275247242
O          -0.09485680238796   -1.36664248521264    1.50609934672054
O          -1.46161958634866   -1.38828269932601   -0.47568050929112
O           0.92421077893482   -1.10514626779547   -0.67267689099579
O           0.01496286253420   -3.26654118058301   -0.01554781869540
H          -0.68971622930768   -3.59128049655537    0.53656543456539
O          -0.45965612086489    1.16381662138199    1.66288581116597
H          -0.28752134846896    0.17796083948485    1.69035329253136
H          -0.97463757442322    1.36954373331257    2.44538023328477
O           1.99220750577885    1.27632430240379    0.21679056733007
H           1.38929379875778    1.49187857768461    0.93755121433095
H           1.90603674361306    0.31855720134941    0.07998555663241
O           0.63283913400668    1.22539692684886   -2.04674110514412
H           1.25695671254850    1.53939294519361   -1.34781476375119
H           0.81085908277979    0.27099010614696   -2.07824823326977
O          -1.46805650400536    1.06757853170434   -0.71020463768393
H          -1.14460497873819    1.28477751872421    0.22192374535724
H          -0.62705648576328    1.22593120220034   -1.36078669085622
H          -1.57790740600810    0.00960332404559   -0.68157730473760
