    19
        -40.92135389
S           0.19551776977261    1.54667835405103    0.07542034674852
O          -1.24994273968164    1.57397544437075    0.03168267274329
O           0.69797249349341    1.20787640627943    1.40752760952724
O           0.78511508827893    0.69760757516412   -0.94769054870514
O           0.69985847628551    3.01020064468105   -0.23092051711932
H           0.20185560225003    3.53901643533650    0.38477642327756
O           1.93261929587540   -1.52348007405428   -0.08297857371163
H           1.59830798382196   -0.71666908857372   -0.53689849106326
H           2.84724442685973   -1.34891869591965    0.14642778464113
O          -1.89532193614653   -0.93128956114233    0.44909286198121
H          -1.69318302227077   -1.20974132311965   -0.47590679869434
H          -1.87172441396256    0.05321514082280    0.39462623364682
O          -1.03488890871087   -0.94920382379802   -2.05018210322737
H          -1.60345171979407   -0.45476299874133   -2.64294910704827
H          -0.31856749838734   -0.33920770626983   -1.78668628013567
O           0.19008367009859   -1.20456069666535    1.75392197933168
H           0.88115446442993   -1.55016874121812    1.09110840953092
H           0.40989204898942   -0.18928452385982    1.78230301492576
H          -0.77254108127509   -1.21128276740121    1.23732508340440
