    19
        -40.91892616
S          -0.47134326137041    0.94034423136139    0.97482708627383
O          -1.23066555142215    0.18236630370463    1.94594679001685
O           0.92919816793960    0.60369469861678    0.90875447796491
O          -1.09289277800115    0.87575704856902   -0.36117191223039
O          -0.55679124429948    2.45995105999415    1.40445301074096
H          -1.45258587188473    2.57118763479242    1.70910703980786
O           1.34040422350587    1.73186696969671   -1.51076678260667
H           0.41846474232819    1.84502727222488   -1.75979540202927
H           1.32253053612840    1.61463367930204   -0.54617432335182
O          -0.91357929541027   -2.26714537153098    1.14019980708733
H          -1.70662770788113   -2.75639223666662    1.36998799568930
H          -1.00127041746886   -1.37680899979330    1.56758448960630
O           1.93942597823680   -0.85262492925684   -1.19392188661161
H           1.99776545506267   -0.65388229090317   -0.24585538878192
H           1.93116236908126    0.03931145387583   -1.60949977065813
O          -0.50504505271340   -1.38104432521258   -1.20614681383492
H          -0.83258864561958   -0.41248286273112   -0.95821945823525
H           0.55154012785411   -1.26560370563733   -1.29152480568339
H          -0.66710178407817   -1.89815561040927   -0.33778415317623
