    19
        -40.91990212
S           0.79113412389206   -1.23676949621367   -0.36127807713611
O          -0.61138752921181   -1.00222449044793   -0.77429241994169
O           1.36667719842028    0.00238665839755    0.13794733788640
O           0.91509454486471   -2.33997573499922    0.54545845629823
O           1.56672294975671   -1.58926786314291   -1.68902191674488
H           1.70047922768225   -0.75434948065706   -2.13274259382267
O          -0.62312723663201    1.18600608307592   -2.25533388336288
H          -1.37712364381801    1.21602654492020   -2.84648233107664
H          -0.65405267498468    0.31298449435919   -1.80870609809242
O          -0.14037260589927    2.13386349001885    0.22851346145200
H           0.63158769992411    1.52101088678452    0.24557465084025
H          -0.38764134986813    2.14983525585179   -0.71682183924923
O           0.21777288290038   -0.84167433110407    2.59475282825690
H           0.47280312935427   -1.56072824820158    1.97187404349528
H           0.98728578243122   -0.26597746084716    2.63679938729012
O          -1.53640070024582    0.29501663009845    1.15188993716270
H          -1.04543164168285    1.20705932863789    0.84546201806506
H          -1.33587679051890   -0.31551421386039    0.34235237271480
H          -0.93814337634835   -0.11770805270036    1.88405466597052
