    19
        -40.92136399
S          -0.06774541105186    0.04263146929210   -1.38510411713662
O          -1.14517166010150   -0.58661590454362   -2.10781033569678
O          -0.53255787861216    1.17028245715706   -0.55817914153487
O           0.73763308883572   -0.86928046440863   -0.60440742784012
O           0.89895501430514    0.69375966997269   -2.46325174294372
H           0.32642657908679    0.89757868890209   -3.19735198123701
O           1.76512649303011    1.85061190208625    0.65152575207973
H           2.45959379221978    1.74879123672961   -0.00147426642184
H           0.92300365086642    1.77408406107899    0.16430007583337
O          -1.84096713196784   -1.90715550505483    0.06310678423586
H          -1.13026907850616   -2.55271154429516    0.11034358197850
H          -1.74528236091176   -1.48134425525754   -0.81905129391434
O           1.09026742142262   -0.37893492284065    1.94535164351238
H           1.15282117426846   -0.78294133724053    1.04970324899613
H           1.49166689617269    0.50735222801801    1.80734725225375
O          -1.31355304615348    0.08607782130819    1.56585875509860
H          -0.29609907323376   -0.13106681793333    1.90665266307980
H          -1.12427563276361    0.68922483660317    0.75684777961476
H          -1.64957285695267   -0.77034360959108    1.11559277008365
