    19
        -40.91790602
S          -0.12484575855453   -0.94583017606324    0.37804383191295
O           0.85980729904706   -0.38198730817782   -0.50947051924919
O           0.06411841807764   -0.62685691471658    1.76402122498858
O          -1.52507507033872   -0.56390264271251   -0.06482798462500
O          -0.13272375676182   -2.49587829406615    0.19690494642727
H           0.75257534707354   -2.78284946980691    0.50421475264472
O           0.30069730821041    2.23170653495242   -1.09437063269941
H          -0.08436672631086    2.41909487588230   -0.21831578510875
H           0.85713860415674    1.45167712498369   -0.94906641096766
O           2.30034644378598   -2.16555034068776    1.12807214325857
H           2.49236866621614   -1.50620953401854    0.45215551445018
H           1.96346764898651   -1.67749044173459    1.88826938722396
O          -0.81084428431237    1.93049346002369    1.37888688526376
H          -0.44456115853103    1.09594766768591    1.71031679868977
H          -1.76491664393658    1.83097848330233    1.40174573219878
O          -1.42706730230364    0.67745772919120   -2.22577600247853
H          -0.89434369361514    0.16368939237337   -2.83824026386017
H          -1.54954928577675   -0.07680008943837   -1.00420014380834
H          -0.83222606707670    1.42230995547777   -1.89836348265169
