    19
        -40.91833240
S          -1.34489242501660   -0.05946651804117    1.07903012765279
O          -0.05094653860213   -0.19154459216010    1.76683037586768
O          -1.85554945043877    1.28705401588635    1.14823756880510
O          -1.28819598998720   -0.61372157829422   -0.25918274315744
O          -2.35264887130341   -0.97493302700852    1.88868333157642
H          -2.54013398847020   -0.45902204315160    2.66696450149213
O           1.89612845967326    1.35822939995953   -0.95480917605039
H           2.32342716111355    2.10019494424114   -0.52300153002257
H           0.93514736038596    1.61029718410371   -1.04725853964706
O          -0.64928498563818    1.95021901525803   -1.09323607482533
H          -1.09625825244108    1.89857149525380   -0.22150399469031
H          -1.07589287787569    1.26068898191091   -1.60998446976824
O           0.47658656866048   -2.32430967013833   -1.07938877137039
H          -0.31326457475556   -1.80608655650501   -0.77875226135855
H           0.51980126959292   -2.22509692930216   -2.03267011008877
O           1.88547915801653   -0.79884805752377    0.38619502607664
H           1.46912070171205   -1.50681518087494   -0.22611558863815
H           1.98020098669944    0.06022259763688   -0.17453920195166
H           1.08117626867444   -0.56563349125219    1.06450153010074
