    19
        -40.92136395
S          -0.71960457846309    0.92082207135059   -0.74487882535136
O          -0.55130817518439   -0.47959220427167   -1.06137177380764
O          -2.06750088082744    1.29222070534616   -0.39284105510595
O           0.26134341662358    1.35122053339071    0.26706393037793
O          -0.33950436612202    1.73079424475002   -2.05669150475699
H          -0.85626883567889    2.52927310883700   -1.99684644997397
O           1.28532659520573   -1.85014720102988    0.20791209092093
H           2.02985668086898   -1.27365994218789   -0.07328372864836
H           0.57030425210659   -1.59448740564917   -0.41893695805952
O           2.49717151617283    0.30453527325509   -0.78726210293970
H           2.42280445876341    0.40588000801583   -1.73769122069260
H           1.77635152544298    0.83765030523837   -0.40210028116635
O          -2.20990661054535   -0.76515610309693    1.24839559484609
H          -2.32199171329192    0.05529892423563    0.71669669948250
H          -2.28433901610504   -1.48684065201613    0.61774260823369
O           0.21952218245213   -0.48313592152411    1.97801148539393
H           0.31444815412176    0.38573541760543    1.43888510681293
H          -0.77670585000317   -0.69118266635029    1.86687313664454
H           0.75000120484893   -1.18922849129438    1.33032325474564
