    19
        -40.92161575
S           1.05381517373584    0.16152134103690    0.02821844242083
O           0.85465551872383   -1.05056934709095   -0.70711276298669
O           0.90948563680551    1.37423228191945   -0.74359068638216
O           0.11552884087225    0.23206874031396    1.23268356466626
O           2.44846637450470    0.13613763262153    0.68745463476625
H           2.52779442261152    1.02296531613384    1.12152847711391
O          -1.08954805589148   -2.82332381471126   -0.10953190610887
H          -1.13450914948899   -3.53977861149610   -0.74463729815695
H          -0.28121817390541   -2.31727341814916   -0.31157517940021
O           1.91319188059547    2.55889959317669    1.46198659455052
H           1.51048635868650    2.58303472653356    0.57902350311942
H           1.19080005299813    2.46658238382091    2.08971595682091
O          -1.33840041139036    0.44433131715972   -1.92077842120547
H          -0.58099930826887    0.98626875302872   -1.64245645452697
H          -0.95725637432368   -0.30363678024158   -2.38747846532538
O          -2.14129330940000   -0.43193886870745    0.46475109403436
H          -2.08564518396969   -0.06020407763479   -0.44710951715087
H          -2.01408305023724   -1.39824973909326    0.36590466537059
H          -0.90127123265301   -0.04106741864412    0.98300375836880
