    19
        -40.90446713
S          -0.91357541656943   -1.77394998846799    1.40218453318020
O          -1.96445204589723   -0.66601871226984    1.31463978032293
O          -1.42674984413011   -2.89720225956357    2.09481310872187
O          -0.28893123025031   -1.95789423012250    0.12491149286221
O           0.21206898353511   -1.11791841979660    2.32362493867433
H          -0.10614135669565   -1.17590594181712    3.22165527239398
O           0.97241723574993    1.70522156197124   -0.19644111804161
H           1.12404922438278    2.03855923394399   -1.09230475316434
H           1.55046447482711    0.91983694066279   -0.08806297440530
O           0.09422226412582    2.16059348161744   -2.81997124991012
H          -0.27133630192286    2.95781784768024   -3.20590868493109
H          -0.64922003385976    1.64294955403202   -2.48706818010064
O           2.12939808968424   -0.70059633420999    0.16287692011693
H           2.37804416504165   -0.79192715367541    1.08490878614629
H           1.34040338911870   -1.25806288467531    0.04979613300378
O          -1.19852840658722    0.43376851723810   -0.79832079013812
H          -1.75453981677599   -0.11138727560058    0.46482617248079
H          -0.42149942926824    0.99953588185153   -0.48612550889644
H          -0.80609394446772   -0.40741979877377   -1.07003389835316
