    19
        -40.91971857
S           0.07099304236645   -1.20742344633814    0.73952156459979
O           1.36305696098809   -0.34334047581877    0.49246830056767
O          -0.36778055399614   -1.65576662003181   -0.54546080759129
O           0.34126658410976   -2.18416442287478    1.74110608165218
O          -0.91356671383887   -0.18468620820742    1.31967992722032
H          -1.22010928432711    0.51535511886020    0.60330888434157
O           0.89261676890084    1.58215135510592   -1.54728635052151
H           0.50824549381594    1.06425904666096   -2.26882786486531
H           1.34564667809075    0.95306396666972   -0.97245042119069
O          -1.51632987947031    1.46796977544889   -0.46480089729387
H          -1.84519052887203    0.96218094329523   -1.22323059367070
H          -0.62823934169327    1.78152978690346   -0.76731425652732
O          -1.02574980952758   -0.17503334542768   -2.64904580407938
H          -0.77713390590068   -0.80135034235935   -1.93919168562654
H          -1.31831646774952   -0.70925721105857   -3.38879919428779
O           1.49928859482825   -0.18891103952110    3.07069869792874
H           1.66268066671942   -0.12748998357908    1.41221027600865
H           0.77320241550100    0.34599604736764    3.40292225439801
H           1.15541929003690   -1.09508296509990    2.98449186893853
