    19
        -40.92136381
S           1.26143540212636    0.02512501515562    0.57484457760548
O           0.96395807056333    0.22950370117513   -0.82502346356256
O           1.76175093325295    1.19537544208580    1.25236833237189
O           0.11144381754382   -0.57663112641049    1.27239189405636
O           2.40440511305574   -1.07527505998198    0.64049657285384
H           2.88719587860540   -0.86322666446128    1.43426116183617
O          -1.41581292049089   -0.40593146556513   -1.71688654768257
H          -1.36203463860218   -1.34769895249287   -1.44142459940414
H          -0.47531966303221   -0.11743804975556   -1.67366196097780
O          -0.49452322604831   -2.55479836964470   -0.43817428853550
H           0.33838735308308   -2.89823057830911   -0.76613357669562
H          -0.26892327423335   -1.96511160267853    0.30587871854489
O          -0.17989178052013    2.63718179345873    0.20452103211725
H           0.57811141048073    2.25457177513227    0.70194238905148
H           0.12205036822415    2.70102174316741   -0.70588756847957
O          -1.86074139105819    0.73109816499883    0.43887349720435
H          -1.83599544109547    0.26352312171966   -0.55091427328213
H          -1.18174089465283    0.15115865972229    0.94598321457181
H          -1.35375513701208    1.61578243273324    0.34654485840645
