    19
        -40.91091347
S          -0.92604359165852   -1.50946127791999   -0.74745422324954
O          -1.13518650990657   -1.54808211482547    0.66052309780892
O          -1.83188687306986   -0.76448372245528   -1.56097726019270
O           0.52211644424458   -1.08261180744208   -1.05039339931470
O          -0.93681745647740   -2.99340680175463   -1.28161993918723
H          -1.11668898341320   -2.93981536522421   -2.21793705566754
O           1.57648344588775    2.07719845382105   -0.74877924994513
H           1.88153772840722    1.33655274014423   -0.21027461278897
H           1.74188016965229    2.87501362196617   -0.24200508623491
O          -0.52812997760789    0.69826626715352    2.09037327547167
H          -0.84614062262545    1.21983680887884    1.31737973754975
H          -1.00709167688526   -0.13822830793788    2.01585821621317
O          -1.10892220061426    1.59516223044637   -0.34025998613139
H          -0.23534670288077    1.80352323932335   -0.71792224162191
H          -1.50006514854589    0.90315742662921   -0.88907229526244
O           1.64471729071859   -0.15617996939975    1.03672244171677
H           1.96802765355204   -0.87989765550036    1.57677623396920
H           0.99744489861737   -0.72583471843554   -0.22152346752745
H           0.84011209252795    0.22929098256998    1.53058580426980
