    19
        -40.91836427
S          -0.95240155960030   -0.13126830287732    0.68028083264503
O          -0.02229767189476   -1.20377659445055    0.40368070384659
O          -0.44627694034111    0.92636944307777    1.48743867781657
O          -1.49028490301923    0.38576863822089   -0.66908988510391
O          -2.22550382358353   -0.71524617450703    1.32336861556527
H          -2.44996132851036   -1.50366434238681    0.76723189400205
O           2.15110224167755    0.13443386735714   -0.58851470001873
H           1.53712286800146   -0.52810731227070   -0.23309459179280
H           2.40802784493915    0.68166969423280    0.18086131215492
O           2.20292754916868    1.54000650267209    1.71673378674400
H           1.23157924686225    1.49361086279255    1.70509295691916
H           2.47926678498641    1.19198409764862    2.56632506645768
O          -2.13835045627729   -2.58064180590824   -0.48295890367649
H          -2.34510746601123   -2.18658290842120   -1.33432753886896
H          -1.18963993365808   -2.43594667586049   -0.32612336945794
O           0.39732122131068    1.55567311124530   -1.84383860498448
H           1.17459886160424    1.08744626845970   -1.40716894226212
H           0.44550575010257    1.35221835543060   -2.78083825947495
H          -0.76762829576254    0.93605327547994   -1.16505906043810
