    19
        -40.92113573
S           0.79907305697665    0.76655727651365   -0.44017271567947
O          -0.27072528810145    0.13832958949321   -1.19185084015912
O           0.74649723242929    0.19745784784271    1.00720246333487
O           2.10071151262746    0.59771923387899   -0.98456399526401
O           0.46872733028137    2.24069452030517   -0.22658545024431
H          -0.29858390923758    2.28996081715114    0.45272402273160
O          -1.39575450438479    2.05458400644263    1.47798112353793
H          -0.96524414311694    1.49178248905947    2.12840662272887
H          -2.02777744268876    1.47318595973691    0.98747398283326
O          -2.68335136430905    0.38837271413287   -0.12241795452500
H          -3.27874920433706    0.75139038059200   -0.78101844898649
H          -1.83771146552608    0.20725504224559   -0.58446781059013
O           0.42456121772487   -2.47013738606009   -1.09658481202550
H          -0.36898449252866   -2.94432577482303   -0.83967435843854
H           0.14916077337796   -1.55960151027080   -1.30660188952138
O           2.36723010691370   -1.68339221761921    0.56341201452084
H           1.39983483730381   -0.59081295192643    1.00997774700366
H           1.77324678312530   -2.20678059164966   -0.01787464787267
H           2.89783896345245   -1.14223944505496   -0.03536504336044
