    19
        -40.91892653
S          -0.87422606511760   -0.30538889988948    1.09570877119068
O           0.19216831550489    0.65103398026982    1.26051775277319
O          -2.16095424468259    0.27267328526844    0.77306385880946
O          -0.49890777458404   -1.35269798120118    0.12723907540498
O          -1.03568534016904   -1.05283012610419    2.47998715448239
H          -1.89293017896999   -1.46565100966094    2.42940794845278
O           2.14022830565303    0.95260005257599   -0.66021933973860
H           1.60231811589578    1.39113853856402    0.01783614634898
H           2.50125246203215    0.16832642251241   -0.18805630854558
O           2.18440048581557   -1.15024174106400    0.98735970131595
H           1.53812798434335   -0.55425566850333    1.40196351460014
H           1.65824027702784   -1.87559253485598    0.63830234101299
O          -1.68678861079332    1.51720748111595   -1.45787172867791
H          -2.49266890186714    1.50225927536011   -1.97884711368179
H          -1.92424854043366    1.15479470848458   -0.56615119092271
O           0.22836159546209   -0.09765549563172   -1.88457650141123
H          -0.51049114017661    0.61069918055405   -1.87756969118430
H           1.09882227552846    0.37538562720506   -1.49145823372311
H          -0.06701901046160   -0.74180507500048   -1.10663616650301
