    19
        -40.91974998
S           0.84257791733205    0.02282163681021    0.01436124549346
O           0.14190964908811   -0.94481861433299    0.81227795037029
O           1.88640774733205   -0.63927429150126   -0.88883176526541
O          -0.03872570116426    0.84504409687513   -0.78925406642479
O           1.71671262741241    0.90786363443930    0.90552581244562
H           1.26571566732413    0.93572192818878    1.82814382226697
O          -1.31362045307313    2.14243841695389    1.20243751337054
H          -1.26036487337134    3.09089732665396    1.06805025510681
H          -0.95300011891118    1.72837408407822    0.39717749682536
O          -1.59438465528130   -1.31514443104548   -1.31142381819446
H          -1.33830477619086   -0.37964919115012   -1.29415222118703
H          -1.41589077907705   -1.62514271049179   -0.41503994659533
O           0.23146029219998    0.81512022156336    2.94338876090709
H          -0.03087073487649   -0.09553883479406    2.75740322530058
H          -0.46494549726320    1.37653480182346    2.53897197156088
O           0.59531645417182   -2.04957367265347   -2.57003881519210
H           1.44910915825134   -1.25841092559640   -1.57256357894354
H          -0.31478148126626   -1.92766394722955   -2.19283489714363
H           0.59567955735060   -1.62959952858471   -3.43359892469145
