    19
        -40.92003356
S          -0.57376914115324    0.26365800461718   -0.61330517966546
O           0.02834860314362    1.25966448143088    0.23647965195828
O          -0.09399720729224   -1.07132340525725   -0.34489329313101
O          -2.09865777793756    0.29594196811594   -0.48653389153428
O          -0.37346160769917    0.62240995888508   -2.08718654950354
H           0.61880863913463    0.61935153348867   -2.33096040534482
O          -0.87870456424471    0.51339260729416    2.64452575808769
H          -0.45766966621307    0.86697094539205    1.83723635468510
H          -1.30652527631862    1.25644658334371    3.07492965661182
O           2.43459434654550   -0.21939688088524    0.01256527373507
H           1.63104944246875   -0.76848495480976    0.01127511677509
H           2.19115713607767    0.57360876787269    0.50078940391202
O           2.12707017565864    0.43820085759373   -2.51517789367625
H           2.42427857303502    0.22715676823013   -1.59137021395167
H           2.31358406286649   -0.33890988290338   -3.04780967273060
O          -2.25824657217482   -1.39350453045409    1.38318791713699
H          -2.34601726339662   -0.39362572073854    0.23276784977090
H          -1.54610519402590   -1.93970513539145    1.02887423103369
H          -1.83573670846000   -0.81185197583419    2.05460588582861
