    19
        -40.92136383
S          -0.81413070267117   -1.02884707220755   -0.45194411002432
O          -1.93501130422749   -1.49955323784213    0.32336782750880
O          -0.90500813148395    0.35830739054497   -0.84841874119093
O           0.47539183511857   -1.30233592772255    0.20659064699353
O          -0.78189640844622   -1.88208868632445   -1.79056360802268
H          -1.16362355031957   -2.71929736246792   -1.54231675299818
O           2.15388476577076   -0.11746864613786   -1.52107712938705
H           1.64650172613664   -0.69082982891653   -0.91601045474648
H           1.80850025878498   -0.28670524165551   -2.39918643861606
O          -1.78087228775681    0.63500895958350    1.85965552702989
H          -1.96409307177999   -0.22427658392001    1.41609892845106
H          -2.12433842047203    1.30571868244184    1.26276005528923
O           1.07625028832209    1.97076510406792   -0.26604063353702
H           0.23414797304371    1.61046403997212   -0.62736357839164
H           1.75504590383391    1.44974856574231   -0.74950555691177
O           0.76970515274706    0.62256763251898    1.78956222382459
H           0.78537140858126   -0.26518288161555    1.27415997494455
H           0.99227485466188    1.33376483251271    0.98680191409552
H          -0.22810030014857    0.73024026149148    1.99342991517362
