    19
        -40.91386732
S           0.07244523198802    1.50411916943381   -0.03130768544436
O          -0.95246265868258    2.31735859799079    0.53677711360586
O           0.86947493726370    0.70884154842256    0.84503976525767
O          -0.50750319995832    0.65303335681708   -1.15500363987541
O           1.07337711508072    2.46520154689382   -0.80285431315195
H           0.58239387790821    3.24408314410962   -1.05639380030399
O          -1.75020811581592    0.12940042285432    1.95040091963838
H          -1.01382407361988    0.08553069387248    2.56474590874293
H          -1.69332973486304    0.99606847696798    1.52406876169487
O           1.21171852155134   -1.99083229776353    0.35378108881962
H           1.27159423893042   -1.16559811308095    0.85646528871310
H           0.25014484781492   -2.19317694041670    0.31848203054117
O          -1.45770376916779   -1.88120001077685    0.12464838338905
H          -1.63044066788291   -1.40126893559324   -0.68865797859726
H          -1.69729361269206   -1.27099086447996    0.84721061956884
O           1.43859171671352   -0.71895000059026   -1.85228884808316
H           2.21683352227550   -0.16668025554863   -1.74338628173628
H           1.43274924381750   -1.36321960585895   -1.06380092175502
H           0.28344257938041    0.04828006669352   -1.52792640113162
