    19
        -40.91893359
S          -0.35833194098063   -0.88049653481822   -0.49029035256160
O           0.88152899778327   -1.59001732089697   -0.30891635561937
O          -1.29279561838924   -0.89904488409838    0.58332580943848
O           0.00865867006138    0.57499028570704   -0.85100171772974
O          -1.05699792254666   -1.39822637867022   -1.77354093587883
H          -0.34202413510016   -1.45206293845846   -2.45486277675579
O          -0.78113774360669    0.80127933945444    2.68594564424767
H          -1.17853214363653   -0.00746229842085    2.33464057356775
H           0.17740729961768    0.66701657628875    2.57183675647805
O           1.26719945579230   -1.28586895454989   -2.94439625094114
H           1.53020485729011   -1.55869880906412   -2.04947874003755
H           1.52152363750967   -0.36430749870743   -3.03985360405090
O           1.65503919987611    0.19267999320506    1.61292057640792
H           2.00180616605104    0.88559025236297    1.04698315749244
H           1.51018016166666   -0.58086573339592    1.04736723074369
O          -1.43085007705178    2.08556116065919    0.52797223888892
H          -2.34074328063758    1.81339447065342    0.38456192964986
H          -1.18623221098159    1.73809450735104    1.44089180183305
H          -0.58590337273178    1.25844474539026   -0.32410497516030
