    19
        -40.91990192
S           1.18952478214379   -0.85478189786088    0.36289249368110
O           0.65901433751950    0.22496935920948    1.18035281065621
O           0.21502871501887   -1.20077661678508   -0.69743203019003
O           2.49717966700044   -0.59486078306547   -0.16307108120197
O           1.26579505978548   -2.12667693941454    1.29290656146849
H           0.47413266579817   -2.09816659999323    1.82614643513334
O          -1.67595485899828    1.22389349197596    0.57179587505992
H          -2.18142159123966    0.38905229388669    0.61694510379499
H          -0.83659356448289    1.00017040075263    1.03771668196662
O           1.82664165511453    1.86720243546441   -0.81824512261946
H           2.25929205739167    0.99419395720800   -0.67570619648271
H           1.72773878470484    2.24114478480195    0.06247585610769
O          -2.12969542307358   -1.44099612401013    0.49423580942457
H          -1.26903056751749   -1.47246199511924    0.02431779686808
H          -2.72779144682134   -2.00821065890908    0.00502950390407
O          -0.44975867413750    1.03836171200963   -1.58415927641219
H          -1.08504002190785    1.24804168405508   -0.73690970478967
H           0.44316149649155    1.51908494333711   -1.39736298572743
H          -0.20222308284746    0.05081657293550   -1.40192852095128
