    19
        -40.91915216
S          -0.44817189573034   -0.01968049370525   -1.15505435675290
O          -0.56957271296047    1.17303791082611   -0.34780428654175
O           0.85873675910843   -0.31772433193306   -1.63273355171738
O          -1.01782589078923   -1.20163455622786   -0.33954329019658
O          -1.44108312149674    0.05415394683528   -2.33060120683191
H          -2.29702078202222    0.32184219487728   -1.91045074153644
O          -3.21291147182894    0.76796213862921   -0.56936683584003
H          -2.42355950304198    1.20920802333355   -0.21428735610675
H          -3.36697079427939   -0.00594722015168   -0.02067738307526
O           1.61154698414380    1.94594954535721    1.09126470157347
H           0.83853793975687    1.79395617840431    0.51973600621447
H           1.26929470902231    2.14896626084325    1.96370973253011
O           2.63782360495930   -0.46568189682569    0.43646341602230
H           2.50541989168720    0.44780656339958    0.75980743552331
H           2.30708488930193   -0.44975217028591   -0.47525009950297
O           0.68259303875959   -1.83656555432485    1.39783295149591
H           1.50211584738669   -1.31497840502769    1.11333299810675
H          -0.35199120183988   -1.48708507401522    0.40273348555723
H           0.91595372988873   -2.76383306001089    1.31088838105361
