    19
        -40.91893374
S          -0.87344585828012    0.56907830985571    0.23437194480639
O          -1.46718562252844    0.36334238005348   -1.06119152229504
O          -1.06703171583513   -0.44160987852121    1.21779549867922
O           0.63477625006743    0.80349012371607    0.00163743815327
O          -1.35886689921408    1.92570821331685    0.80652289344864
H          -1.28786307751615    2.56485981319675    0.05515953484560
O          -0.92285830496465    2.94263368562451   -1.55193082479191
H           0.02412030898928    2.95612322413448   -1.71311806560442
H          -1.23648197243230    2.05546512861900   -1.79458613528754
O           0.51969401264772   -2.68098419668580    1.00492029097234
H          -0.29827854466260   -2.25487982947053    1.29575307832768
H           0.49130202349158   -2.61647675437604    0.03287567190281
O           0.23537009363340   -1.72224884522046   -1.53666802698155
H          -0.50511304696047   -1.09790338755484   -1.50535682650004
H           0.99932547775456   -1.22693834138395   -1.83943197907813
O           1.88093465074605   -0.57628591192793    1.67500805992044
H           1.49749966834729   -1.47770358725143    1.44293409625700
H           1.21225645543015    0.27313429512223    0.69635559481586
H           1.52184612129792   -0.35880445123400    2.53894929840396
