    19
        -40.92120575
S          -0.59076578235917    0.86263612533340   -0.89833654726882
O          -0.93306079179004   -0.55734623549522   -0.98418656404127
O          -1.69881890228650    1.69378787765254   -0.51564319957351
O           0.62788234626634    1.06120871389265   -0.13047863266273
O          -0.19457943859340    1.28517425125199   -2.38692310074763
H          -1.01172713250623    1.59201517270545   -2.76819018229894
O           2.31375220937712   -0.65006440701433   -1.17299450126263
H           1.82808365538847    0.13497219636955   -0.82912109316754
H           2.19431352933517   -0.64183837373522   -2.12455017149457
O          -1.92434316521629    0.40626668914438    1.81089616802517
H          -1.91633227974590    0.86244620085140    0.94718681508997
H          -2.47190615189065    0.93955908705956    2.39114025829261
O           0.65711082476708   -2.01612696296377    0.22491653056577
H          -0.11581391588354   -1.52450182633635   -0.29434452732018
H           1.46807570402930   -1.69529498884414   -0.29292199732564
O           0.59737162079122   -0.39061102233835    2.11697542921708
H           0.85996320387800    0.33616319071818    1.52105210683139
H          -0.36285871418083   -0.23441655439517    2.24669268239846
H           0.67365316059107   -1.46402913388322    1.13883053673806
