    19
        -40.91857450
S           0.46419675719549   -0.99880829785996    0.05588930688131
O          -0.93104387861280   -1.41160265973230   -0.41620366562839
O           0.93344892189639    0.11873483476493   -0.73707278262408
O           0.48843178513441   -0.78391532560317    1.46601525007312
O           1.31341911157924   -2.23772206439813   -0.29376489015032
H           1.42188593823162   -2.20751980240374   -1.27860702463648
O           0.70380330095394    2.52670296126619    0.52056761438453
H           0.78415743493714    1.72828173682664   -0.03034259104378
H           1.56665644124889    2.67128137743497    0.91326180669729
O          -1.10212993219611    1.32774392870053    2.13876367951405
H          -0.51817431744782    0.55577433930132    2.21469075961955
H          -0.57035199450572    1.98702145576957    1.64957888338521
O           1.52857051154434   -1.47718094259214   -2.76635707853715
H           2.40807644222016   -1.33472676308982   -3.12518640684505
H           1.26419242630547   -0.65088356293706   -2.32221895915895
O          -2.62646715056241    0.28001015093013    0.33757519988859
H          -2.12004200821143    0.78238464188869    1.05019350035312
H          -1.65472214554602   -0.71374001922443   -0.15863379946936
H          -3.35390764298018   -0.16183599880356    0.78185120779631
