    19
        -40.92052672
S          -0.46588349435129    0.64053003593648   -0.28075704401971
O           0.22992967280503    0.66561627612678    0.98177375423663
O          -0.28809654179638   -0.58595076871897   -1.01753715362856
O          -1.95256165446172    0.91836206325357   -0.04065377807665
O          -0.03894997479131    1.82047352676535   -1.15870232342082
H           0.73883969269140    1.48879957593583   -1.74266940114826
O           2.79282207829791    0.48687984370616    0.18425415190752
H           1.91105346895619    0.47273511521993    0.60213522435275
H           3.28592693393475    1.18854792907791    0.61442364800300
O           1.87469638699944    0.64490172765392   -2.31232307355053
H           2.42871671338816    0.56043191022806   -1.50297215901468
H           1.40284710839599   -0.19285570971101   -2.38798698272149
O          -1.42144021014631   -2.37438458593178    0.64195943145728
H          -0.91447990867516   -1.84462600990352   -0.00195630515153
H          -2.04570886954628   -2.89553426400344    0.13282982739380
O          -2.12292778815662   -0.30173016528701    2.16293599167402
H          -1.96654098984937   -1.19591203381469    1.78212370093989
H          -1.26051209040905   -0.00092524580085    2.47274564227548
H          -2.18773054328907    0.50464077926652    0.87037681846424
