    19
        -40.92246906
S           0.43796564830480   -0.22299588622768    0.94916573320820
O           1.55603120384828   -0.87119462395315    0.30429017143459
O          -0.78188528723969   -0.97233402350293    0.95164683302309
O           0.81893814716495    0.13287142735928    2.40264496694501
O           0.22606125909976    1.14946015784642    0.31497557528793
H          -0.33389078639328    1.09610188257558   -0.62854597086865
O           0.09586033263294   -1.54261916715142   -1.86634215338516
H          -0.53255251455975   -2.16966794376012   -1.49970247011346
H           0.78285752657045   -1.42620375084195   -1.18801455697927
O          -3.01772356131871   -0.21319734231093   -0.33498815072754
H          -3.59137432448675    0.25839769490720    0.27122910955241
H          -2.31163794510218   -0.61400385543118    0.20669423576562
O          -1.05310789551499    0.84239757952571   -1.76917456235171
H          -0.63096664063031    0.00018958214667   -2.06634636138270
H          -1.93064344793291    0.57158095839811   -1.40913518138180
O           2.98734196419735    1.13809640041331    1.37820996624458
H           2.88512061209155    0.35877324764211    0.80794618867634
H           2.70045112466164    1.89521619052465    0.85998236346673
H           1.69315458461990    0.58913146184452    2.31546424360672
