    19
        -40.92025483
S           0.02157982335297    0.81352539181549   -0.40503131144995
O          -1.08682835077811    0.32557284335218   -1.23187724754845
O          -0.19362033332804    0.46412614720358    0.99063805792716
O           1.31389314928531    0.31921288027181   -0.87620778919632
O           0.01126895271708    2.36142116605760   -0.55133680311951
H           0.93455011811439    2.65307751941454   -0.37461276050796
O           0.90578268975603   -2.06847983041259    0.13421429226325
H           0.92390116360050   -1.84562025795438    1.07010247028725
H           1.20441376535145   -1.25038665943081   -0.32735165338740
O          -2.22827726673259   -0.98439926693411    1.68514272485159
H          -1.45390313695814   -0.37177052995890    1.57387227216628
H          -3.00961600151664   -0.42836405452888    1.70139429018589
O           2.62314284698778    2.52650786961130   -0.33156685209434
H           3.08631848100608    2.87111702265707   -1.09880545807983
H           2.43383816131718    1.58495018796110   -0.51848313468536
O          -1.54053759350159   -1.98706978281235   -0.53400212961712
H          -1.42216303669732   -1.01125117449736   -0.97168569637425
H          -0.56093887738843   -2.22175550711255   -0.30967452325288
H          -1.96280454419959   -1.75041396320095    0.37527126173891
