    19
        -40.92219811
S           1.17300112517273    0.90861130471971   -0.18513038628368
O           0.46717174962038    0.13205278269778   -1.19292711315528
O           0.53067357820354    0.61372231394762    1.18794653361710
O           2.57600407157159    0.70405498305854   -0.16401811022176
O           0.82666084813154    2.39219099576717   -0.36936082909596
H          -0.16086880528592    2.44319055818986   -0.20892614082426
O          -1.67427527754957    2.13891387184749    0.27161104485263
H          -1.59732930068566    2.12217647621397    1.22934768652424
H          -1.93741769714658    1.23330006844204    0.00781037751478
O           1.79809665189296   -2.10597935510225   -0.49347633892255
H           1.40534545509143   -1.41586472405213   -1.04996254915565
H           2.64067052747111   -1.74354955120455   -0.20585670121361
O          -1.97838511721707   -0.46074214323835   -0.55010658596046
H          -1.07498498427185   -0.28966551382162   -0.90718633333815
H          -2.54157580407201   -0.63923379930943   -1.30553924785291
O          -0.20242589057780   -1.79011281674338    1.24656136916370
H           0.50148307268757   -2.16182602018972    0.66757851699309
H           0.25207052750268   -0.37763984899442    1.31134805176555
H          -1.00391473158002   -1.70359957137197    0.71028673471385
