    19
        -40.92115641
S           0.69151703283201    0.78448017584896    0.17338785123927
O           0.06171139407079    0.54247972108184   -1.14861607487479
O          -0.26890928031613    1.42544253679779    1.06051502790286
O           1.22451204722497   -0.44262093991827    0.72097968427192
O           1.87338995501013    1.76030342189328   -0.07748303868314
H           1.42935305260560    2.56950526948695   -0.41641976001651
O           0.99595455698840   -2.76865694342457   -0.44379314672585
H           1.14935381589859   -3.45677141368834    0.20646583574384
H           1.28829324305629   -1.91916545429853   -0.03423762716645
O          -1.56925758519383   -0.80170459899539    1.52908110137294
H          -1.22063823233790    0.11786916498515    1.44786899309316
H          -0.96032062016584   -1.24204066571978    2.12767484050729
O          -0.07309797542698    3.35436914523252   -0.82182119455358
H          -0.45598069276074    2.97866391904150   -0.01338685075249
H          -0.37003242953927    2.78251534578852   -1.53728695164170
O          -1.19673201748094   -1.54098245955459   -0.88921679968950
H          -0.68288207793307   -0.60061793210850   -1.13686102634819
H          -0.41809671851737   -2.19360962181158   -0.81806356885343
H          -1.49813747801349   -1.34945869063585    0.07121269517900
