    19
        -40.91329922
S           0.79612691686213    0.23676537090132   -1.48714047267888
O           1.17809172858746   -0.89671240016066   -0.69116888656969
O          -0.27321235299664   -0.18330292332232   -2.48383804715573
O           0.43903335874949    1.41517375167334   -0.76388777481178
O           1.99574664614396    0.61872807713732   -2.42299907546270
H           2.30569905979857   -0.17208161207112   -2.86142052759513
O          -1.89207983897729    0.54934017488620    0.50439537847165
H          -1.56205451019073    0.32209961076757    1.40233969615520
H          -1.20802453079409    1.09996831281130    0.09913394294134
O           1.66869826122652    0.55881308889317    1.56575812069418
H           1.71943425476944   -0.19976585963508    0.96670956024640
H           1.37498547683167    1.28383953600523    1.00014497100625
O          -0.64194140023976   -0.04066466797592    2.80509960627336
H          -0.75444492499186    0.48873939421156    3.59583199347997
H           0.26882817594071    0.13275126858466    2.47860072250869
O          -1.63028939990447   -1.56376864855217   -0.94619435105834
H          -0.93156139362978   -2.02905234138687   -0.47329400521820
H          -1.91459238635517   -0.80530327510607   -0.34616402423431
H          -0.93844314074350   -0.81556686764331   -1.94190679693458
