    19
        -40.91373483
S          -1.27418201485112   -1.07683474668458    0.01405238246783
O          -0.40111635902278   -1.13571412622063   -1.12782901264226
O          -0.83456307619534   -2.06700894983995    1.08172857725322
O          -1.49179635506042    0.21696237189159    0.57233293038267
O          -2.66460446852183   -1.65627957454709   -0.42969773048161
H          -2.51461305979469   -2.48110826778482   -0.88894742451489
O           1.87460485713428   -0.27772241410479    0.23767376694591
H           1.93860573119442    0.67075845742060   -0.01402562687729
H           1.26163688935434   -0.68029592925544   -0.39195645106356
O           1.72235520088458    2.25736576042211   -0.63304369966794
H           2.31471657323766    2.57781536006837   -1.31481516718452
H           0.84091349458123    2.15259680472495   -1.05419814539942
O          -0.65924826666548    1.55814040389949   -1.67740391971753
H          -1.18190799622368    1.52865507871591   -0.86571790236765
H          -0.47321458651606    0.62936964787094   -1.87092689813490
O           0.55249965036730   -0.53776258163712    2.44279551662768
H          -0.23973016842389   -1.51964311292721    1.77534828009983
H           1.23275873246499   -0.40879211393332    1.71548841352512
H          -0.00311476788448    0.24949792189764    2.42914210070768
