    19
        -40.91287707
S           1.63042038675754    0.51719770353931   -0.52717521491695
O           0.86854940025842    0.87465302759432    0.74842506681474
O           1.27742936751870   -0.81634101502496   -0.93217755261299
O           1.49851919348446    1.56704987263405   -1.47241745645595
O           3.13640612441882    0.46308012423978   -0.06072101348017
H           3.37118485190296   -0.44627590660197    0.11535104395103
O          -1.11146606311984    2.14152720993730   -0.99287977582459
H          -0.21674880903505    2.14141264425291   -1.36685635313320
H          -1.01261606138665    2.42837846879471   -0.08233332647414
O          -1.49085854454587   -0.54962447431002   -1.19551374656072
H          -0.56174164364367   -0.77757009026114   -1.33083385740086
H          -1.53737467249382    0.42465986132569   -1.23146306523757
O          -2.16928226497808   -1.37506908310497    1.22526439250051
H          -2.74648251138007   -0.70713516101978    1.59784473809081
H          -2.05262283828303   -1.14379937961670    0.27023734120711
O           0.40256081945772   -1.40551868437098    1.60389624331324
H           0.65503981410496   -0.04116616509153    1.23133849852936
H           0.65505091688356   -1.83341955215404    0.77460895406471
H          -0.59596745584741   -1.46203939072339    1.62540509361154
