    19
        -40.91880962
S           0.48527229881509   -0.54352222901657    0.93410872579033
O          -0.58282302369080   -1.02552864946348    0.08194972809990
O           1.71931757664653   -0.25632538789239    0.06868941706821
O           0.15721687510620    0.58431645922338    1.74034124711946
O           0.96642409607510   -1.70346548769378    1.82637024857854
H           0.93559267377055   -2.51459343433092    1.25551042760462
O          -0.70201764180422    2.67217065537583    0.20851430086036
H          -1.46851684134369    2.20855941243378   -0.18516447615716
H          -0.47606738477546    2.14796644190702    0.99336926216025
O           0.38113258077897   -3.48802563805109    0.03712725948167
H          -0.26087007243802   -4.15280962500754    0.29897592383863
H          -0.12176292655680   -2.70982420566802   -0.26704105786214
O          -2.31661853070398    0.82320736005222   -0.92161208271776
H          -2.19618670671194    0.74401600837221   -1.86996940065966
H          -1.80165201683976    0.10158419986804   -0.51997681442297
O           1.25197674755301    1.83753777381919   -1.25265765315645
H           1.98692413649589    2.44870019529158   -1.16463833678100
H           1.56209756188402    0.57715618026985   -0.51859086836306
H           0.48056059773852    2.24887997049533   -0.74530583048675
