    19
        -40.92079124
S          -0.01540598513106   -0.79526394630492    1.25466772555923
O           1.14788973661687   -1.04311052536875    0.40071492080290
O           0.28858295303093    0.06984828366902    2.36520603842511
O          -1.16452678277293   -0.37437766486029    0.46514045466906
O          -0.42220962673995   -2.20243065039822    1.85400246794919
H           0.28388946376973   -2.39499084553261    2.46300211848371
O           1.23630868170933    2.21940033625719    1.15419577965821
H           1.17203867563532    2.95475450497334    1.76658433663620
H           0.97331513396167    1.41964384652139    1.65928351808559
O          -0.31815598079757    1.74044130826614   -0.92009274827854
H          -0.87410206498386    1.13934383414801   -0.38401654936271
H           0.31684469813467    2.11825537577977   -0.26720716971789
O          -1.38881324641915   -1.50657204098387   -1.89014225837495
H          -2.18375721162057   -1.17109332412599   -2.30944355971008
H          -1.43313949239533   -1.23241079458387   -0.94361827322341
O           0.83150888720847   -0.23383162806083   -1.91684073752946
H           0.42052145489833    0.70911772050327   -1.63565812274285
H           1.11011736959613   -0.61695871756115   -0.97503146760451
H           0.01909333627161   -0.79976506221682   -2.14074645392996
