    19
        -40.92025500
S          -0.41048551952549    0.66829337676759    0.46021930721756
O          -1.60400873353348   -0.10566469422066    0.12469923115082
O           0.68654320241179   -0.20547450478490    0.84669189389126
O          -0.00111681366831    1.54946187956047   -0.63794184159324
O          -0.75914939987422    1.60652881948070    1.65010545346197
H          -1.39665764619433    1.10514104889501    2.20776586579105
O           2.91761379216317   -0.17482155381426   -0.47273293819843
H           2.15368796682677   -0.24214082634277    0.15916442994487
H           3.42486043887555    0.59161478173991   -0.19853829463977
O          -2.63015756053300   -0.00851477644462    2.53793414212001
H          -3.52131216013382    0.34883101146927    2.53715112371584
H          -2.44439200730635   -0.29911291229401    1.62236204059155
O          -0.25205411352012   -1.75433360928338   -1.40615614874922
H           0.28073567409739   -2.19003266239010   -0.73364036686474
H          -0.90783169825480   -1.21784653688235   -0.90245959584631
O           1.17742997956926    0.15102288530535   -2.28025236438638
H           2.02735040103692    0.00630674988049   -1.71640630477571
H           0.61293368968870   -0.69751736106306   -2.11798381126169
H           0.64601050793335    0.86825889444669   -1.67998184125457
