    19
        -40.91966066
S          -1.30503810789671    0.35477089709158    1.05014716618075
O          -1.98669560000642    0.37282825254181   -0.23485866788370
O          -1.02960527722010   -1.02657682492842    1.47429491437440
O          -0.11458827697752    1.16806352694835    1.07458584089464
O          -2.30576320130258    0.94296734027564    2.11342884309575
H          -3.06459072512585    0.37366348715641    2.03026429086526
O           1.24993017194303    1.55552260220854   -1.29145207128947
H           0.77952333299099    0.95208681052476   -1.87802739485203
H           0.63874859270602    1.74001288829305   -0.55951767285720
O          -0.38393420377328   -0.69056653118292   -1.92611070951456
H          -0.88125363781786   -1.20450605631934   -2.56513189393187
H          -1.05953295383458   -0.24320274571496   -1.33799749531397
O           2.37430728979450    0.15893564645619    0.64750124589507
H           1.75876853259659    0.59956111431735    1.25649850315733
H           2.28994244188264    0.70075264780821   -0.17459291550649
O           0.86779109972708   -1.74340677163960    0.06895224513923
H           0.48557988133090   -1.45020709415003   -0.81932048751010
H           1.61513234721932   -1.01414857583893    0.32583752898089
H           0.07127830379223   -1.54655062393424    0.74549872004452
