    19
        -40.91793092
S           0.96516432925549    0.34449971194139   -1.42689381935872
O           1.78890402171377   -0.76945455176774   -1.83708555084187
O          -0.46846390799498    0.06047518150586   -1.60135861179877
O           1.24420078937954    0.81340339045852   -0.08518703960718
O           1.28318984035678    1.55116745706595   -2.39808821391594
H           1.26525530411511    1.16605734294551   -3.27005507407548
O          -2.01312833068750   -0.09492872835790    1.87152060701975
H          -2.93851147200609    0.10142257009310    1.71233907439179
H          -1.51509790042910    0.74630220094577    1.67873027293198
O          -1.07108604801421   -1.62913119311175    0.08167094177349
H          -0.90464492191840   -0.92761958788261   -0.71190309013789
H          -1.47810433308720   -1.07212432394267    0.85351474342978
O          -0.66495230348213    2.04379721894384    1.20496555107387
H          -0.20618047743319    2.56067336589003    1.86987779459122
H           0.04014156614634    1.64548402809850    0.64103654229861
O           1.41970915964576   -1.88198421977443    0.50666988963749
H           1.70957801178515   -1.70308980132194   -0.41641292009442
H           1.65276835666296   -1.07241591549877    0.97645373846696
H          -0.10874166403320   -1.88253413624250    0.35020518420737
