    19
        -40.91898058
S          -0.57978393275436    1.52383944059657   -0.08304265083632
O          -1.08179133475917    1.86801432378465   -1.38746563131041
O          -1.28251005761724    0.42207324090647    0.55476103572909
O           0.87018383830063    1.26233932506276   -0.09071625418937
O          -0.78097434524217    2.78424857515842    0.85362362803901
H          -0.71414116840162    3.53975449803158    0.27574517307399
O           1.14263593620140   -0.88493476412406   -1.29800256995640
H           1.15719188944678    0.06308180025141   -0.83056330563298
H           1.22155573944634   -1.56514031184385   -0.51001164769611
O           0.61974629287330   -0.28199841615664    2.25069792981963
H           1.25122948513740    0.40248601358123    2.00921687173440
H          -0.20512593537213   -0.02870090618843    1.78666795918135
O           1.15196413849165   -2.35353378678875    0.75584754313405
H           1.02148874659760   -1.63670744057329    1.44039949103525
H           0.39314286796428   -2.93642488747773    0.82574317538091
O          -1.33439602684029   -0.75099344113135   -1.82424743446413
H          -1.61688343282093   -0.62896727443173   -0.89886256643799
H          -1.40523206719927    0.15124872721594   -2.18027553902484
H           0.17169935653501   -0.94968471588534   -1.64951520757004
