    19
        -40.91329958
S           0.74010239375446   -0.61283744267951   -1.40662246164159
O           0.99662866020450    0.75535308682132   -1.05077940181141
O           1.83101047765037   -1.49910663233309   -0.82544148082323
O          -0.57168274111050   -1.09775890963816   -1.11794850853891
O           0.96042033531972   -0.77715202193923   -2.95117064520669
H           1.79434878385492   -0.37326162892400   -3.18597208915574
O          -0.53765276439285   -1.02182176664113    1.67246698756981
H          -0.74279987104580   -1.24697320672300    0.75455707649708
H          -1.01023022381684   -0.17983150728452    1.85849382647552
O          -1.78826276773564    1.34876489898637    1.80918266146824
H          -2.69621352051080    1.42792755535697    2.10523500994666
H          -1.79254913534215    1.52233299713508    0.84166544736674
O          -1.63885573750531    1.44633752135220   -0.87442169025741
H          -1.75906059433243    0.51205953877191   -1.08544969743051
H          -0.68586761151660    1.58705335465665   -0.96738048791426
O           1.95869913028156   -0.44246822058211    1.40608486006323
H           1.90935305187868    0.48716811042190    1.15791454953496
H           1.02959385765537   -0.70179270729487    1.69868615983033
H           2.00301825665297   -1.13399302948446    0.16089987398987
