    19
        -40.91941586
S          -0.89798692800889    0.06766891399241    1.34508888881828
O          -1.29248676927884    1.18614017617426    0.50809080488666
O          -1.35066320202777   -1.20393511140751    0.76793613659554
O           0.51553406890282    0.05752794614078    1.64792254897555
O          -1.65777597776300    0.21598433002083    2.71635092441353
H          -2.57266533273314    0.23749016659029    2.45329691562893
O           1.99401198795919   -1.21516022689963   -0.06225916108418
H           2.38884309098337   -1.98024022139696    0.36009672016607
H           1.51582319791946   -0.71769923253588    0.65093668591975
O           1.20317979156492    1.91315455473057   -0.49232978840420
H           0.43043559560845    1.86158693402283    0.09071966324172
H           1.91632046713869    1.47386463660308   -0.02453216183842
O          -0.67052828935442    0.82168788684051   -2.06141086799940
H           0.16363493185667    1.31072444141540   -1.92099349892221
H          -1.18336721386407    1.04196102554534   -1.25518197449051
O          -0.16571810132332   -1.52271310359979   -1.38331649133977
H          -0.37175827076113   -0.56664818587601   -1.81731125287524
H           0.78507758039124   -1.47678589563095   -1.01514929111566
H          -0.74991063720391   -1.50460903473013   -0.50795481057902
