    19
        -40.92246922
S           0.15548898586063    0.10017797367226   -1.05487107376470
O           0.52230489842032   -1.25714800571423   -0.78535466642961
O          -1.25674989913064    0.32616497448253   -1.25733274526950
O           0.65189430182823    1.02320361113144    0.05501183678842
O           0.93810191722457    0.60316970076236   -2.28736677940893
H           0.58401251298732    1.51515610769673   -2.43894062131238
O          -1.94954533715374   -1.09664792985016    0.92990477311357
H          -1.68522346748674   -1.98713521034111    0.68562864519906
H          -1.92432600501629   -0.57591711948881    0.10882492588548
O           1.57268103917986   -2.10041003981508    1.54150575443243
H           1.23307260090045   -1.95894412461818    0.63732896584999
H           2.52878669554203   -2.11729517081948    1.47386577010565
O          -0.47076084748905    2.77539863721091   -2.04536453741811
H          -0.18585051452583    3.17560321902072   -1.21903439596201
H          -1.14651684136873    2.11731868864485   -1.81435912339527
O           0.09156026436365   -0.00973758385080    2.22083558415304
H           0.69997834801096   -0.78651618958554    2.21827159661001
H           0.43152646173616    0.63284926425183    1.05888052735336
H          -0.79043512384080   -0.37929081282170    1.97256557346979
