    19
        -40.92246920
S          -0.48276552554998    0.31889343447435   -0.90110746478069
O           0.07843836443859   -0.80237630936779   -1.61810278117757
O          -1.57041599749234   -0.00079008914210   -0.02679512899005
O           0.63226092021628    1.02805561551891   -0.13674386335524
O          -0.93953536128592    1.39622765136747   -1.90867970026794
H          -0.15739264210820    1.51139213312430   -2.50457365263033
O          -1.47707504450875    0.24992244981119    2.64845076033233
H          -1.84704767959615    1.09635136492788    2.90454129216195
H          -1.68673770897665    0.13015069029253    1.70268488827114
O           0.22221800957831   -2.33721731806449    0.59837701805499
H          -0.70471689328956   -2.46554704379441    0.81485597981227
H           0.23779661467138   -1.97598394970342   -0.30451709177481
O           1.40695362165819    1.09468077974617   -2.98759682736403
H           1.21752513844447    0.17133703145459   -2.75402753553857
H           2.03116722401183    1.41941865704635   -2.33253552306695
O           1.03841778604670   -0.21309998371057    1.95266891664092
H           0.87856116370202    0.52690667294619    0.81071262502047
H           0.20585095166248   -0.02184039094941    2.44632801588337
H           0.91649705600773   -1.12648138680900    1.59606009436378
