    19
        -40.91759785
S           0.38018757154704    0.75731424740907   -0.02931705138262
O           0.58559113727336    0.01202154230789    1.18197776321992
O          -0.44422939943338    0.04031647573951   -0.98292681121058
O          -0.21287768300798    2.13921651432616    0.24851724361361
O           1.70400362848274    1.16416478200166   -0.67903633315432
H           2.27045175332226    0.36680747666877   -0.96177482202284
O           0.92266265953443   -2.23058325483718   -0.37065146943313
H           0.24988719426001   -1.70307605725508   -0.82807041682225
H           0.95980644713416   -1.85288490345187    0.51853318899037
O          -2.12338099897772   -0.70525292659795    1.00137080491080
H          -1.38384605903088   -0.85728541915134    1.60055055565904
H          -1.71788881478528   -0.60328154847981    0.12364704219556
O           2.94713662978230   -0.93284172478717   -1.43099262671953
H           2.32076522389196   -1.60330896140353   -1.05670541451392
H           2.91535270561001   -1.02130943056195   -2.38654791173773
O          -2.51536484363751    1.87430172385677    1.30950797398013
H          -2.54787291341254    0.88369994896732    1.31410160302503
H          -1.11304303675289    2.09777343291012    0.72407213484953
H          -3.19734120141587    2.17420807293108    0.70374455633923
