    19
        -40.91062387
S           0.35840901352557    1.18196464483579   -0.83182287797250
O           0.85952771246169    1.05936505177699    0.55368899977715
O           1.42829885707754    1.02702857902829   -1.78898408634087
O          -0.74779364646253    0.27744626830819   -1.06011076141742
O          -0.20628748999476    2.64163341572453   -0.95245565740703
H           0.53305433403131    3.22159743444057   -0.78989322378399
O          -1.37665627334493    1.33703845379356    2.21593407617689
H          -1.72172671801300    0.45321577259144    2.06334490243390
H          -0.55702586034849    1.39745779706299    1.70946151664181
O          -1.60146389963497   -1.29429418338831    0.80716798790480
H          -2.23586934520272   -1.93107384663100    0.47396976694592
H          -1.45255869519342   -0.62687999352634    0.08763005664090
O           1.40832538676266   -1.56481905452275   -1.54509857348770
H           0.61284795556143   -1.77383480051899   -2.04242330903496
H           1.58570987961871   -0.61085650398993   -1.73942316338232
O           0.94989093491674   -1.36789711517220    0.93796331148527
H          -0.05047723734543   -1.52410051905485    1.02940643149998
H           1.20461651103943   -1.60577711407398   -0.03791204984453
H           1.00917857053832   -0.29721426671507    0.90955665308303
