    19
        -40.91782047
S           0.01971529445842   -0.90341364514976    0.57863892867618
O           0.19328174644962   -0.65487925993447   -0.88185091029050
O           1.28459651400588   -0.77604740238223    1.26523070947362
O          -0.99624715497766   -0.01881740524552    1.11424405789574
O          -0.50850959448764   -2.35945470264949    0.70503460622093
H           0.08576754560006   -2.89141328865229    0.13213345479005
O          -2.17392794227564    1.84502604632645   -0.24985382426411
H          -2.54530924424154    2.47826089167218    0.36732814928923
H          -1.91218578710902    1.05070125440303    0.28160248943427
O           1.04274970887869   -3.14424165644955   -1.27200675238098
H           0.95232469750365   -2.18013004391036   -1.38082872787011
H           0.59934897525555   -3.54979759469717   -2.02101855278379
O           1.31129122180011    1.81046179987896    1.25470929461658
H           1.48113729473244    0.83306949461214    1.31684618977690
H           0.66389521661837    1.98775766751377    1.94213318731405
O           0.24275086260593    1.80197894376563   -1.04195904483831
H           0.25979506778477    0.73092919814472   -1.11273544678526
H          -0.74528903297818    1.98743240360104   -0.85098996950246
H           0.74481459036578    1.95257729913852   -0.14665783878379
