    19
        -40.92174062
S           0.75362674165226    0.26653771979885    0.40432193107536
O           1.38185605096948   -0.82514797943067   -0.30941246595395
O           0.07195751559299    1.20643093411774   -0.57304983425558
O          -0.15831622521914   -0.14001692825180    1.43282494586234
O           1.85752386397881    1.14317073227605    1.03472223774393
H           2.59041778627613    1.17531201349922    0.36688623952154
O           3.52539165637429    0.61931548157334   -0.88449459976640
H           2.85867215032314   -0.08390368937517   -0.99321234051199
H           4.35003894477281    0.18834108290837   -0.64606276496479
O          -0.98109782094069   -2.11179465112461   -0.60564552809102
H          -0.04842774762250   -1.84005122644717   -0.60667236710863
H          -1.20927718035760   -2.26161967311170    0.31559234966147
O          -2.77925637914684    0.46825509500400    1.36296601814077
H          -2.91835740300616    1.30927517138754    1.80140160258260
H          -1.85933891638059    0.20479468393315    1.55540871221910
O          -2.10565422135878    0.22066021792019   -1.19701127571976
H          -1.84396996300420   -0.73024094932197   -1.18578390019141
H          -2.59673575684008    0.35889724079447   -0.35408511167023
H          -0.88905308604210    0.83178472394282   -0.91869386902952
