    19
        -40.91793148
S           0.65449236446785    1.13001298422946    1.17530022552107
O           1.39326047091354    0.48276473535037    2.23493859794393
O           1.33211007334482    0.99916632004370   -0.12480009317601
O          -0.72859678872194    0.70908482669745    1.08753255391389
O           0.63151626678636    2.67927396608172    1.49026237222591
H           1.53660131588292    2.89289234580013    1.70021464069980
O          -0.86769972415089   -1.19953140376972   -2.31608607610394
H          -0.61210640461100   -0.95241860120612   -3.20713149994535
H          -1.33073043248975   -0.40564787914384   -1.93124595083357
O          -1.92964791675503    0.92425837480009   -1.22163985417764
H          -2.86293658136344    0.94661467246026   -1.00193461420448
H          -1.45045119869254    0.94178208736969   -0.35908346802794
O           0.31194668420393   -1.80850055561873    1.56634522739477
H           0.84809394649289   -1.11314655755126    2.01054482874086
H          -0.57879729074501   -1.43856221857265    1.56354735976402
O           1.15270193860448   -1.36300981623982   -0.78774056120100
H           0.34141517315857   -1.37643106617735   -1.43071862050731
H           1.32289196230834   -0.32665696325485   -0.57364977596574
H           0.83593614136800   -1.72194524129889    0.12534471794178
