    19
        -40.91329938
S          -1.06418545212899   -0.27928867070452   -1.30070351212120
O          -0.18837337397853   -1.34681704999488   -0.90332596000433
O          -2.39866067061492   -0.42791771834960   -0.58647342624162
O          -0.52891576499129    1.04015946344542   -1.19268334584649
O          -1.46127834940488   -0.49206883096123   -2.80335562608025
H          -1.73098140675361   -1.40127110315613   -2.92297229217048
O          -0.26400569277829    1.25001832041757    1.57841170779862
H          -0.37106091400808    1.45726171291565    0.63983987160933
H           0.69114828487560    1.05563748408976    1.70712405084066
O           2.34119907615884    0.60382738304292    1.56702109166999
H           2.39240689899351    0.38959521613713    0.60907910529189
H           3.02681130970219    1.25063131523968    1.73972281757592
O           2.09028519166272    0.14798518612022   -1.07194479885542
H           1.55390057515321   -0.65680860919859   -1.03626226741077
H           1.45835517480041    0.83970869601659   -1.30454339223572
O          -1.51273789409279   -1.00269214140895    1.64887998445747
H          -1.06406654009999   -0.11545404200017    1.81469031246340
H          -2.15973091253415   -0.69887290441272    0.41632451951337
H          -0.81010954999305   -1.61363368722749    1.40117115975564
