    19
        -40.92079112
S           1.13584071403883   -0.13718461460719   -0.94720919992760
O           0.21125026688385    0.95119383228204   -1.27042872206840
O           2.34177683095061    0.33135023792563   -0.31459669456950
O           0.45657841763810   -1.20397532589932   -0.22499361986350
O           1.55251442866314   -0.77956518169766   -2.33248009932109
H           2.10765328004432   -0.11371485203224   -2.72611423945600
O          -0.66532564285402   -0.01674544823229    1.88189791167022
H           0.00661927521166    0.68541305247551    2.04754668099679
H          -0.19330096164409   -0.66273772207084    1.31833817268483
O          -2.01788219180538   -1.66420196287314   -0.96236161078941
H          -1.04227927882590   -1.64375905391652   -0.81861549895974
H          -2.35624535366528   -2.39362318381001   -0.43916122623143
O           1.39190459825988    1.62894829947790    1.78333963318727
H           1.79528459185267    1.23482528444344    0.97982785500898
H           2.10023831904695    1.71097681095374    2.42471713742727
O          -1.96271087068942    0.74683103118363   -0.10493686701353
H          -1.09251304039521    0.96765911172085   -0.65762760700116
H          -2.22765451833248   -0.15666651383077   -0.48397345220628
H          -1.54174887437815    0.51497621847416    0.84683143638317
