    19
        -40.92071423
S           1.42012384779017   -0.18497695239923   -0.38367479017919
O           0.70423669354261    1.10632654137411   -0.36926990671300
O           2.38245596691472   -0.27204956851394    0.69047438496280
O           0.48310922202509   -1.28365536315392   -0.42658447586334
O           2.23910386814537   -0.20368791142273   -1.73469243521939
H           3.06112367356787    0.22299196557552   -1.50990736701306
O          -1.02228373878601    0.68330829247361    1.41249153420314
H          -0.32373827897820    1.04056202973760    0.75064550023336
H          -1.64099954199402    0.06663173103389    0.74617649052192
O          -2.08556863866357   -0.74185859359604   -0.30920509295430
H          -2.15192852825188   -0.10732609464562   -1.05389567078795
H          -1.22555171232166   -1.19506236010361   -0.46786830890043
O          -1.41705910155777    1.19799278168395   -2.00867669834841
H          -1.66081141359500    2.11236770345111   -2.16010576036336
H          -0.55633646349512    1.21098047403417   -1.54468889804432
O           0.56438196210265   -1.02866372682727    2.41509324817945
H           1.37386495502780   -0.75322026480833    1.92327380016097
H          -0.47679048153534    0.01773826879941    1.97880723923760
H           0.33266772052116   -1.88839897244559    2.05160721669156
