    19
        -40.91620786
S          -0.69597913161676    0.51360325251542   -0.67576881737261
O           0.08327319043281    0.06426559991721   -1.79496074814385
O          -1.12001664204944   -0.53003845107613    0.22134458582580
O           0.04995893115241    1.59348978326231    0.08723268437281
O          -1.95349956555091    1.27556515784146   -1.20084249102116
H          -2.46724626262079    0.60585247334152   -1.69830790551078
O           1.94372687099601   -0.73077151191132    2.04304944330880
H           1.75076000452360   -1.66983207788609    2.02615389641541
H           2.21889918915293   -0.49611141823994    1.13087195164040
O          -2.45667653436782   -1.12805371481689   -2.15009771276098
H          -1.62774542102560   -1.18232537472149   -2.63729348314417
H          -2.26740874405365   -1.46466349964411   -1.26581933381571
O           2.46742783074893   -0.08413624060414   -0.52371944041539
H           1.67465843980076   -0.12662866690632   -1.08586895830398
H           2.79799603273764    0.81335693674774   -0.60238997089941
O          -0.18884125411891    0.76830761597123    2.41335472147042
H           0.66778936756599    0.26767674669570    2.46185581234005
H          -0.03497494339218    1.39455939664250    1.12879316049954
H          -0.84210134836710    0.11588397298725    2.12241261552930
