    19
        -40.92179446
S           0.03775648175161   -0.87634894050756    0.39730309700099
O          -1.02135143764047   -0.36719272916840   -0.45095246966297
O           0.68445802486637   -2.04465976899109   -0.09639211829887
O           1.07413810782556    0.26244413530282    0.60685140829093
O          -0.49554208739304   -1.09568628917671    1.80886946462815
H          -0.65799005174480   -0.16979608347834    2.22599749156066
O          -2.14957967544798    1.87811189037632    0.42545759683494
H          -3.10233508615188    1.77957555334406    0.37676207657435
H          -1.76737199672528    1.10017551113153   -0.03010679221287
O           0.35602833326246   -0.87781286739611   -2.72390697818827
H           0.33974098522045   -1.83841728832689   -2.71541060028354
H          -0.28968202328328   -0.60536099861399   -2.05015432073373
O          -0.76424656029820    1.29365971734476    2.59167809855553
H          -1.35199985776540    1.65232664626012    1.88060300014982
H           0.11539964699721    1.63388973937740    2.40287297528976
O           2.56681953851924   -0.29713007888310   -1.36191158507026
H           1.75851482427009    0.16796931321096   -0.14295223980902
H           2.81870830313788   -1.19157141121733   -1.11245352924008
H           1.84853455057465   -0.40417604065079   -2.03215458535786
