    19
        -40.91167207
S          -0.67257086680648    1.20744483070466   -0.73336653861073
O           0.58137823208569    1.20948373840983    0.14480563783552
O          -0.29545123936101    1.38264926371406   -2.09897470853679
O          -1.51691426323305    0.09643770797914   -0.42186916869210
O          -1.42937999256743    2.49175815583597   -0.24031625165719
H          -1.00792784097166    3.25628882152789   -0.62827062256597
O          -1.65467926338681   -0.65882355479916    2.17072095953194
H          -1.70983686953678   -0.31763739469141    1.26062627785506
H          -2.33282697421764   -1.33255458079776    2.24997479323590
O           0.93488264015762   -1.37080265347242    1.75631399239890
H           1.38230795834882   -0.52160503619341    1.76165082043010
H           0.02522911425840   -1.18716432913306    2.06455338680331
O           0.51923758247302   -1.79000090473117   -0.85589226493462
H          -0.35518962520776   -1.38371998014008   -0.89053753023048
H           0.73770000979851   -1.84858060925198    0.10322532302345
O           2.09666205361157    0.15682727461257   -1.50328900572314
H           1.66616726360556   -0.73863111782908   -1.37589935433339
H           1.68177791985466    0.53604309105195   -2.28822949194164
H           1.34943415052000    0.81258726684287   -0.47522622407287
