    19
        -40.92136372
S          -0.05287469823772    0.23151691141052    1.36608416871943
O          -0.17927078108774   -1.12857284935093    0.81298708762848
O           1.14543909102775    0.39297604408079    2.15148521857958
O          -0.22470190835181    1.22581549007808    0.33109314176688
O          -1.28479643962770    0.38936785593654    2.35527754688367
H          -0.95215773064662    0.08260882929509    3.19405783163043
O          -2.41955222005644   -0.83217071350388   -0.63591891881969
H          -2.99602017739339   -0.25628649009066   -0.13069227066517
H          -1.69029766168240   -1.07772020007255   -0.03583246673626
O           1.18068943976090   -1.05778922573693   -1.29432547248421
H           0.44297375712845   -0.45050865986929   -1.82865030995707
H           0.65746202359187   -1.29802325229161   -0.44398200555869
O          -0.61380096886713    0.42951752828792   -2.13495217189393
H          -0.51673162810223    0.99726268847781   -1.33649838176824
H          -1.42153862886578   -0.09075955920120   -1.92817792703926
O           2.55863876858984    0.69363419165093   -0.05147802828775
H           2.20100438776726    0.57341760711249    0.85759657716856
H           1.87884697951706   -0.40144144656443   -0.93311250405652
H           2.28668838553059    1.57715527037652   -0.31496112509914
