    19
        -40.92019816
S           0.71310757032132   -0.43058947345349    0.71562345993840
O          -0.06594835902530   -1.25489014570234   -0.17856527260864
O           2.12845660205939   -0.55647081743330    0.58012158755224
O           0.27569457274921    1.04242014168935    0.47497544241421
O           0.31555383647330   -0.67083764093092    2.16591550545910
H          -0.67491836958837   -0.45792533225577    2.30157376955817
O          -2.17966852041624   -0.21709165102695    2.36324085439627
H          -2.62453417975579   -0.99778361893626    2.70212517467026
H          -2.44588439197950   -0.13164019583966    1.41272922650145
O          -2.50428550301861   -0.21571632649391   -0.25038598266511
H          -2.37870320896192    0.60203640608847   -0.73711918080201
H          -1.67170933832641   -0.72397628533749   -0.33899930465371
O           2.90876771993615    0.42035287531731   -1.79832831243421
H           3.60015875197194    1.06730048233868   -1.64599065975259
H           2.77179070045166   -0.03987940133697   -0.94768276526240
O           0.29376388982629    0.79042077450671   -2.05926113552516
H           0.23872052670280    1.13816171509998   -0.53030496095285
H           1.26817543019164    0.77399446976493   -2.19400094920237
H           0.03146228036059   -0.13788598607373   -2.03566648660519
