    19
        -40.90951441
S           1.30453155196957    0.90399811613737   -0.77288019858922
O           2.57385061553301    0.74225762288347   -0.14034966413393
O           0.68243741238120   -0.27430414043602   -1.29712349601815
O           0.35717026841002    1.66499696916688    0.15042314446618
O           1.45456411887694    1.89457280854184   -1.98424708319816
H           2.02089727304786    2.61373128494750   -1.71043012219655
O           0.23275033565798   -1.53331101582397    1.16281598013023
H           0.47886392283000   -1.35076133573386    0.24649182246289
H          -0.74586633715240   -1.46706558628333    1.18673985629775
O          -1.98045927201434   -0.39257393230164   -1.74123640939725
H          -2.08480599863736   -0.98535229229917   -2.48807465689933
H          -1.02108702694296   -0.26547454989969   -1.63073398689443
O          -2.42075606306353   -1.17649523435796    0.83403680853854
H          -2.37958386562663   -0.79480409026669   -0.06476816404296
H          -3.08468787182512   -1.86716430506045    0.81188242018769
O           1.15196232064923    0.63093797929917    2.25871185708197
H           0.59155076704095    1.33546671755892    1.12646958656675
H           0.78600626071295   -0.27642126263307    2.04551331820331
H           2.08266160816987    0.59776624649049    2.00675898739632
