    19
        -40.91790596
S           0.65610635214794   -0.64498374677930    0.45533735227346
O           0.55395289955177   -0.11858671709518    1.78594044621532
O          -0.60544153865896   -0.85645906483908   -0.20732033859419
O           1.56368276923818    0.22964206122254   -0.38954054576462
O           1.43657838068128   -1.99604207983274    0.48816964327338
H           0.88971048389376   -2.58144072060468    1.05265528348318
O          -0.63210108417831   -2.63641445310523    1.97384629454339
H          -0.48091441922664   -1.87718381137455    2.54843964697757
H          -1.24047647553262   -2.33573204233325    1.28963565639457
O          -0.09727613246102    2.35974349776112    0.84307479792360
H           0.75966037586015    2.73367160576819    0.62696656063518
H           0.08025258108418    1.56426591772256    1.36852621664035
O          -1.58386733448965    1.47013327940297   -1.26454934948493
H          -1.21650290104962    2.02959898256204   -0.55541504221598
H          -1.62481891868443    0.58441737868091   -0.87343390523552
O           0.49104718047853    0.68921868243132   -2.59371661294702
H           1.18127985550458    0.41699879630991   -1.35859579716545
H           0.21077668061179   -0.15068376574745   -2.96638148569719
H          -0.34164876476389    1.11983619985563   -2.22363882126199
