    19
        -40.92246918
S          -0.72749660859491    0.00652349247991   -0.78668917262148
O           0.27644002480888   -0.41029976837803   -1.73790901306637
O          -1.19230563460856   -1.01976073144451    0.09659107510988
O          -0.19683509650754    1.19924199054337    0.00495759173752
O          -1.93086212820788    0.61152063107502   -1.54181395473208
H          -1.51883070699123    1.26062850630050   -2.16558093654225
O          -0.15972100242809    2.00574154318320   -2.83800286536018
H           0.22469532693105    2.59936771979288   -2.18684172200008
H           0.32034664942007    1.16501662144239   -2.76201664991948
O          -0.80115656138302   -1.00997511048617    2.75685336666967
H          -1.56866863141804   -0.63516647258871    3.19209872441446
H          -1.05294679615733   -1.15230121146425    1.82463324665840
O           1.75074996763827   -1.66919200968310    0.14086722620235
H           1.37162636557103   -1.30717156367873   -0.67836322634060
H           1.17365454612676   -2.39144352534994    0.40138201346230
O           1.26557090957996    0.34251503822541    1.79385585046155
H           0.47384617270461    0.89788329805446    0.82183869728606
H           0.60448234289551   -0.10011722532574    2.37729388359967
H           1.68741085069788   -0.39301121265813    1.28684587503791
