    19
        -40.91352089
S           0.91486356556034    0.71254102528163   -1.64206702421254
O           1.54587412655727    1.56647144129167   -0.61854755175001
O           0.58978443543491   -0.58892933520718   -1.03918984612169
O          -0.20331675601908    1.30904211563201   -2.29798765085626
O           2.04669391376965    0.44960616015177   -2.70852003732133
H           2.82606579871490    0.25157158154665   -2.19580901329312
O          -1.66767331445091    0.40855741692918   -0.15641327163250
H          -0.92507891121856   -0.07902373973650   -0.58571221927907
H          -1.96305868447187    1.01513675134041   -0.84324733087590
O           0.83102083002397   -1.11895868529274    1.55444552209000
H           0.92087184991307   -1.13210433865645    0.57667445795531
H          -0.03781570370477   -1.53886811048863    1.73491427535878
O          -1.76558099509666   -1.83215651363980    1.52095656693412
H          -2.03547062754192   -1.06014316624517    1.00233644664214
H          -2.01850850990449   -2.60670348530619    1.01576596338561
O           0.21646907865682    1.28825088799536    1.42905219909204
H           0.54294787745068    0.29043872485587    1.66642087924559
H           0.85473763039192    1.52945735550250    0.59124651566535
H          -0.67282561198607    1.13581392144845    0.99568113206306
