    19
        -40.91893417
S          -0.50652193071294   -1.65793146042437    0.10280882410875
O           0.69244010342860   -2.44824287784963   -0.01649442811505
O          -0.50056954163912   -0.82177388442850    1.31300459554359
O          -0.84737925579977   -0.87538727334784   -1.06901105916896
O          -1.70188186095905   -2.68321227106035    0.30339125011492
H          -1.29432146688850   -3.39596880234608    0.78612350249810
O          -1.67880930572673    1.57816454818648   -1.06902873968691
H          -2.63762563678483    1.57384835456531   -1.08383708928322
H          -1.39355110206785    0.63613529704614   -1.19369645172610
O           1.87918468193248   -0.34562241441715   -1.08294948981827
H           1.19973441748291   -0.20914783109425   -1.75004640032404
H           1.63130265620365   -1.19247340427034   -0.65931914030030
O           1.99252572973780    1.69422870998313    0.56181208500433
H           2.56641109195384    1.42087559738239    1.28015600680882
H           2.02384623076589    0.96192866286754   -0.11098474291858
O          -0.46402837444420    1.63303497660990    1.15905535182348
H          -0.97496852232898    1.78070144907948    0.28283462201302
H          -0.52531123466121    0.57320706822830    1.29932050221717
H           0.53952332050942    1.77763553528956    0.94686080120744
