    19
        -40.91226084
S           0.68658015990679   -1.55887221991614    0.60245612984033
O          -0.69239719441039   -1.93170720246753    0.57662208017949
O           1.36414939537276   -1.84602391621981   -0.73345694338496
O           0.98467361432499   -0.23328053729060    1.05700052668156
O           1.44510489466011   -2.55835900499740    1.54763739072692
H           1.08311127285688   -3.42433109400453    1.37260050083236
O          -1.83750566517119    2.30042423452157   -0.05699535831274
H          -2.05762292944415    3.11608972264366    0.39539830546817
H          -1.89037497941266    1.58730213629295    0.61788672950321
O          -1.59221298827823    0.35526180629330    1.78349372891929
H          -0.62755569819658    0.38603264318586    1.84094129353143
H          -1.76808118779300   -0.50450283163247    1.37905106709040
O           0.67932601607179    1.78124716210000   -0.81206587411561
H          -0.24553371028529    2.07012570973497   -0.63705648123885
H           0.93984552498260    1.26255297520158   -0.03591481678561
O           0.61361050816382   -0.19652434799998   -2.43632682586733
H           1.02482784774360   -1.18861313189241   -1.48392627104412
H           0.59146031410601    0.65283606731809   -1.87982247566959
H           1.29859480461902   -0.06965815075123   -3.09752268635529
