    19
        -40.91821041
S           0.80855111888288   -1.06114382102276    1.47099872881762
O           1.24693372128009    0.34154478627620    1.57232999996260
O          -0.64452988011278   -1.13970873000210    1.45566212926041
O           1.43147409681560   -1.76082231727206    0.37738256000923
O           1.28776440559812   -1.74217630389055    2.81066187571424
H           0.87238764352283   -1.20197437536738    3.47591670507085
O          -1.37999548104293    2.14874262100035   -0.73285761676620
H          -1.66650695387476    1.20898969006107   -0.70173618733587
H          -1.67768923899306    2.50662571274282   -1.57136254387322
O           0.77824042253101   -0.56345395735637   -1.84099195015024
H           1.15250948523455   -1.15728714776746   -1.14624030813267
H          -0.18541403362529   -0.66272597913035   -1.75167149038960
O          -1.74894961988086   -0.50307611750000   -0.76814007662654
H          -2.57001712720471   -0.99497616543753   -0.82225668183193
H          -1.34323617345390   -0.76104970857139    0.11015907716086
O           1.12603780318912    1.56257735042095   -0.56127470266033
H           1.24507139782838    1.09999353018989    0.40036292117145
H           1.07807847951856    0.73159420741435   -1.21104735780879
H           0.18928992372935    1.94832672511978   -0.56589508168508
