    19
        -40.91641695
S           0.50929306249000   -1.02468706550541    0.20684008112729
O           0.89900121495702    0.34006776826011    0.49192350343658
O          -0.41632444406068   -1.58027751332554    1.14642539115925
O          -0.03182277015878   -1.12024436906287   -1.20650398528405
O           1.79646554856483   -1.90431235530556    0.14269491998995
H           2.16571696373890   -1.89277243098558    1.05052882050171
O          -1.95070368817327    1.81124936293488   -1.78242399696638
H          -2.60082671701321    1.28627299158605   -2.25252215016816
H          -2.01818692574244    1.55902690429599   -0.83836029917080
O           1.88866624853771   -1.21901273472599    2.68242688442498
H           0.97316246178977   -1.51012038893409    2.77058956420833
H           1.85472986021367   -0.27697396106664    2.48649296223408
O          -1.76756814976010    0.86449705321641    0.74981159409647
H          -0.81331160344540    0.99558499283189    0.84105381493721
H          -1.91016609577567   -0.05710114035412    0.99042725815267
O           0.54852486119921    1.09112242404753   -2.18375685071713
H           0.99158024618748    1.40109719534138   -1.38370082114230
H           0.24426177296351   -0.25302032395892   -1.74636972517873
H          -0.36249184650731    1.48960360070759   -2.16557694564546
