    19
        -40.92003353
S          -0.43268208746835    0.56427664367671    0.51448842613076
O           0.79835163455283    1.00288482231379   -0.09277240717231
O          -1.59237220689130    1.47376255036531    0.10165431382360
O          -0.75855240480142   -0.80721998171948    0.20265334371961
O          -0.39042416624840    0.77695012353519    2.02921033861324
H           0.33915385420996    0.20401184716475    2.45715342218917
O           1.80762356151149   -1.59102025355610    0.42961103839133
H           2.17260909822719   -0.81490171761581   -0.00741827554806
H           0.85795323151344   -1.57292452505885    0.21793568031287
O           0.16564839593515    0.86103724600590   -2.69313855269476
H           0.52991598268582    0.92459376818328   -1.78923939252727
H           0.34138883323149    1.70393955793380   -3.11634487208259
O           1.38838752020241   -0.81503622123616    2.90734570177255
H           0.97590309649127   -1.54212608437897    3.38005124325917
H           1.70461391083542   -1.18260279875109    2.04069344041171
O          -2.28837209962153    0.13853446522422   -1.92537920854218
H          -2.03060114897956    1.03532562336256   -0.71667182987676
H          -1.47735217068680    0.34953383319922   -2.44029377920292
H          -2.11119282459460   -0.70901891859359   -1.49953862100382
