    19
        -40.91907714
S          -0.93194038631509    1.30021854123684   -0.47266319893347
O          -0.73185595686797    0.06998473391919   -1.26759556956938
O          -2.21225231837905    1.30011573465345    0.19554619517808
O           0.19563442544098    1.53601946185859    0.39950759600229
O          -0.95562496050879    2.47839013922615   -1.52956530536457
H          -1.85522492768223    2.51395305229940   -1.84415828461026
O          -0.53711095842492   -1.76679903595743    0.38881789997259
H          -0.67955879362294   -1.07222189758814   -0.39314182810342
H           0.49321795781187   -1.89664885019913    0.44255051392843
O           1.99182016956707    0.30262933305321   -1.08822304978742
H           1.58349131358463    0.93348513874227   -0.46267194544998
H           1.27012449192893    0.11167143464652   -1.70108045827017
O           1.98857563919946   -1.85153254513252    0.37969184490009
H           2.42189690637768   -2.55941142152455   -0.10060228981040
H           2.13325536742715   -1.01273120479528   -0.14775699778074
O          -1.16848866606399   -0.08384723831344    2.16321104863066
H          -0.38887135464327    0.48517584610454    2.20303090552703
H          -1.79900204676361    0.42847283308998    1.60904383961419
H          -0.81808591210098   -1.21692405531813    1.22605909390963
