    19
        -40.91483106
S           1.00900830013911    0.29011469999074    1.04852068335681
O           1.09086913217120    1.80706507057232    1.14283399670569
O          -0.28396119323487   -0.16742626453719    1.48686232145208
O           1.44717344070780   -0.16720890707915   -0.22663968509855
O           2.05237847515603   -0.17102587440736    2.12400400088363
H           1.68951583815242    0.02268547745363    2.98627644096707
O          -0.44487418739905   -1.39613624376346   -1.86755728160263
H          -0.78596945612822   -2.03029149893785   -1.21226275198087
H           0.43125392800222   -1.15319085626633   -1.54056663739436
O          -1.46304572432127    0.82960420686411   -0.84146098432346
H          -1.23279867677729    0.03121499732575   -1.37932691978249
H          -1.34889845781681    0.55763484385112    0.07712087320420
O          -1.28821908034597   -2.52241720617229    0.49269544535885
H          -2.22631005488640   -2.54626189400344    0.69164285597102
H          -0.92769227006827   -1.74476935926208    0.94927879951981
O           0.55491325519783    2.40280178094284   -1.20064754581341
H           1.15004211587522    1.84316884132825   -1.70993203403628
H          -0.32903052925155    1.92529926159938   -1.19183694431286
H           0.90564515481771    2.18913891447118    0.17099536692226
