    19
        -40.91833250
S           1.61426698819450    0.39872186743469    0.46381783999079
O           0.47276389284004    0.26688983468512    1.34762998098134
O           2.38453739159300   -0.80839241922879    0.29613565658449
O           1.22403267696191    0.98417573128784   -0.82839455702910
O           2.57105612279208    1.46349541055553    1.14191444030549
H           3.39142633676022    1.35127625606638    0.67134631365072
O           0.21263604548704   -2.29296687452757    0.32309412323819
H           1.10293367143154   -1.89562483063890    0.21526211659209
H          -0.07610397452065   -1.97546882114009    1.18360757510425
O          -1.50666167275219   -1.41561411200912   -1.44452364286630
H          -0.87771171302747   -1.79133741327687   -0.76723746961273
H          -1.26284260002581   -1.81477697585502   -2.28167719578202
O          -1.74340315957668    1.58747362991310    1.10808469025438
H          -2.41528034349316    1.06054129185370    1.54563190854750
H          -0.87022712592138    1.18205857698533    1.34484111386751
O          -1.17768151015365    1.09999749090891   -1.32119654116410
H          -1.38622055979078    0.09647943634993   -1.42457234110860
H          -0.11146183227994    1.11738998900053   -1.16491598421076
H          -1.54605864451271    1.38568196163805   -0.40884800733657
