    19
        -40.91836648
S          -0.94792501703899    1.61555223909438   -0.61735664660509
O          -1.26219176604150    1.23284039864172    0.73988915400017
O           0.40580903746862    2.11350947315306   -0.77850713475641
O          -1.23148204661676    0.53843525807573   -1.57880727171236
O          -1.92091952873909    2.79724953009478   -0.99879654410617
H          -1.57910837162997    3.07980780000897   -1.84169137533526
O          -0.28223488745563   -2.60454448378036    0.69724386388175
H           0.32037617121234   -3.29472691455287    0.98064899880083
H          -0.14848293740580   -1.83860796727352    1.29866849116249
O           1.97109362694099    0.14589709267524   -0.13482255450607
H           1.67250913909532   -0.01005247363560    0.77665702811423
H           1.55011907609618    1.00297295346346   -0.39889692169957
O           0.31314546221175   -0.34877123668765    2.01402796054287
H           0.21149072839197   -0.16767711912480    2.94994275396629
H          -0.31892907753498    0.27145971535911    1.55373767253134
O           0.39134366492006   -1.30590390781951   -1.42487979096236
H           0.03553666981302   -1.91490179646270   -0.69693231607366
H          -0.35383361916834   -0.54919311461029   -1.57472359884152
H           1.17368365549359   -0.76334543660318   -0.96540174840815
