    19
        -40.91317297
S           0.32861020981882    1.58337525537330    0.11614595246284
O           0.82769871653286    0.83692556645518   -1.01150825223726
O          -1.15867166517820    1.31812390969062    0.28073198962501
O           1.01966328641863    1.44529450210061    1.34868058700101
O           0.39277872445161    3.10801074452681   -0.28359163607038
H           0.18875774013008    3.19147645960057   -1.21351913715631
O          -1.71571961571929   -2.24526088599697   -0.08031200082970
H          -0.99086267009006   -1.95577871503871    0.51937150031996
H          -2.48787095117924   -2.36858113425751    0.47420537594919
O           0.20554265560397   -1.22480564607029    1.46682391759842
H           0.24065160849507   -0.31172615118776    1.77056072006728
H           1.08743001069904   -1.39094016935666    1.07913063478288
O           2.60028459796966   -0.82621846044859    0.26372712730717
H           2.94290127515516   -0.20622205763807    0.91255668192352
H           2.11020241393812   -0.29024044931499   -0.37784709755077
O          -1.63493084508418   -0.16781015375656   -1.63362517966062
H          -0.71745714677906   -0.16798599980213   -1.93932717762195
H          -1.75985364395942   -1.03786311606499   -1.15347295671472
H          -1.47915471099134    0.71022650090513   -0.53873107910870
