    19
        -40.92003360
S           0.17531863644079   -0.81576959433201   -0.27444114181781
O          -0.91938148512452   -0.10876289856587   -0.88950180799918
O           1.21094387066483   -1.22551854646530   -1.32416807670733
O           0.82008979546037   -0.05792072919093    0.77159044461832
O          -0.29110384940023   -2.17408906191931    0.25363301064181
H          -0.98423710339628   -2.05866780801675    0.99526872179142
O          -1.90299652349917   -1.66831797861778    2.15539379548294
H          -1.49520357424790   -1.87990388988404    2.99875892932478
H          -1.91393696905176   -0.67777797571877    2.08527660240924
O           0.36456782547588    1.95342254525661   -2.02052293713023
H          -0.22132657008206    1.27476258453859   -1.63313946178921
H           0.14514882895604    2.00078126806989   -2.95333983450319
O          -1.52587558433452    0.89243396208990    1.68943198634355
H          -0.57424395774463    0.76677144254084    1.52914045075000
H          -1.90595767652929    1.03742094291963    0.81700978815101
O           2.63274945074331    0.85295373348732   -1.13990694532214
H           1.95406769118900    1.44855769791425   -1.53002678786090
H           2.51619425432831    0.91835172040234   -0.18430743584329
H           1.91518295010769   -0.47872742448716   -1.34614930054486
