    19
        -40.91322296
S           1.00057943816977    0.92391219386464    0.88622142567021
O           1.65715726683540    1.81093201096265   -0.16329278713480
O          -0.35782399261677    1.31666531183353    1.12282985503670
O           1.22487347931387   -0.45672769167577    0.59447031159706
O           1.82254930007930    1.27268855544396    2.18031211219224
H           1.57951168586460    2.15042636579239    2.47096445627589
O          -1.02142019042836    0.47632628623643   -1.46258963945255
H          -1.52208564526672   -0.35866808143015   -1.33610611060089
H          -1.04149885039673    0.92737609215003   -0.61016629332054
O          -1.12491532965047   -1.34471000094292    1.67551894955378
H          -0.20638623695497   -1.30436590043774    1.37010060599169
H          -1.37461045924143   -0.42507514387397    1.81576566630109
O          -2.18620191799273   -1.84799007072832   -0.75247233410076
H          -1.89587675375591   -2.71315147089638   -1.04400518050012
H          -1.93026752756618   -1.77116697274389    0.19184170686387
O           1.48390628944819    0.28647310349432   -2.11377284200085
H           0.48718644020256    0.32860798967424   -2.08842562220896
H           1.68404975974021    1.26409025260207   -1.06667567530007
H           1.72127322419934   -0.53564281931574   -1.67051860485207
