    19
        -40.92453847
S          -1.29014124649968   -0.78579145215583    0.20191371442296
O          -0.99997324645803   -0.79956801965947   -1.22722786546635
O          -0.23822885663699   -1.46504975522399    0.95046339225846
O          -1.55504805721578    0.54695146381820    0.70173176043308
O          -2.61765205757545   -1.61504428684557    0.41406563437343
H          -2.42410633387090   -2.48179865763637    0.06890581758821
O          -0.36292697243876    1.70946227671379   -1.47101419222527
H          -0.98391834854632    2.07370674251405   -0.82955916637526
H          -0.65438909405325    0.76841192971254   -1.56766782673571
O           0.65843515707555    0.91871192862603    2.00832819364353
H          -0.26797818990006    0.91203965294725    1.66311423392252
H           0.81133381155061    0.00012503202244    2.25986762521408
O           1.67939190903180   -1.22689660885556   -0.77697959531352
H           1.14308738434399   -1.29442987714932   -1.57568771340896
H           1.04760625523590   -1.46629503754758   -0.05185277778884
O           1.77711466159530    1.23030376648153   -0.22867583337136
H           1.89430205679310    0.22705044653579   -0.49781207476758
H           0.95985506986264    1.55353064224043   -0.79779455887210
H           1.42323608766533    1.19457982346360    0.75588124251166
