    19
        -40.90824066
S          -0.33378120836399   -1.41196403640297    1.90157342335636
O          -1.58502795597775   -0.54520565543489    1.73554807873776
O           0.03572129300713   -1.98423948148251    0.63328930854872
O           0.70270312750421   -0.73165154337919    2.59883749425122
O          -0.88389838697265   -2.56870298666880    2.81103197206765
H          -1.47037910833273   -3.09601941358323    2.27084400643894
O          -1.28648155425794    1.00733089588979   -2.26668648509071
H          -0.34098670340753    0.92166018500605   -2.50214620696527
H          -1.65537391928323    1.67966256292616   -2.84126669098239
O           1.43016279471971    1.02161240406095   -2.50093971213016
H           1.92396693239681    1.84358010667077   -2.50745627431897
H           1.65007341261783    0.57823622292739   -1.66702851442610
O           1.65022148421175    0.05799223492083    0.10275503374121
H           1.17411421750888   -0.79538559874557    0.08161926634279
H           2.00481047493768    0.10748683089247    0.99711035429938
O          -0.75355132081984    1.33333731557582    0.32184242900624
H          -1.11780573168050    1.22431468892804   -0.58873831260602
H          -1.32745621395580    0.29920957550990    1.16835770423396
H           0.18296838614571    1.05874571240266    0.25145312549649
