    19
        -40.92175623
S           1.02460600703304    0.19954397702940    0.11803186819255
O          -0.13574534347513    0.96922833817797    0.80976938487746
O           0.45147492806599   -0.86108382012738   -0.67868611549659
O           1.85928653021563    1.10241664681252   -0.60728585304757
O           1.77078302341745   -0.37732444433642    1.31504393875594
H           1.07285934124334   -0.75795422607085    1.96513551491348
O          -1.19939906071133   -2.43520272391735    0.67134935548239
H          -0.66800682019994   -1.88024471365346    0.06208562444978
H          -0.97777488203557   -3.34635638769709    0.46996256366339
O           0.33253824451937    0.90682628230100   -2.82007735292410
H           0.14497293126104   -0.01262786278616   -2.59883832959344
H           1.13200076325802    1.11411500636143   -2.30929406757038
O          -0.14975894915452   -1.19520180492121    2.74569981479505
H          -0.63245527925621   -1.75918035894820    2.09020307417929
H          -0.66482536089370   -0.38752932668493    2.82935585533963
O          -1.16634069644195    2.26190327057043   -1.12921476454351
H          -0.83072126113630    3.16147317274230   -1.14439118332599
H          -0.73587488078364    1.79218082293789   -1.89065837819713
H          -0.62761923493024    1.50501817221973    0.10180907004466
