    19
        -40.92343665
S          -1.47014985263835   -0.61327701245074   -0.55477737412351
O          -0.68217255717330   -1.82609272580516   -0.60889376937426
O          -1.93030228521274   -0.32141012496145    0.80373434567756
O          -0.78441521389725    0.52467550334816   -1.14642339257389
O          -2.76630956374378   -0.84601834723449   -1.41928939051581
H          -3.18108492925123   -1.58196715932154   -0.98013009304554
O           1.42449655013810   -1.27697271342008    0.84186358118519
H           1.86783145240815   -0.73669996198782    0.15472738756931
H           0.67880264027276   -1.70499815637095    0.35747290948528
O           1.86010898241875    0.32437710072865   -1.27062068344921
H           2.19531312626451   -0.06834363587039   -2.07775617936818
H           0.88314521108423    0.36299543810198   -1.36875031407243
O           0.47512161682650    2.27923031974481    0.42048292164971
H          -0.14568928313449    1.86658701278289   -0.21552357679274
H           1.34542300304054    2.18462500875206    0.01796196496091
O           0.06838428546478    0.40092710962500    2.08913585836779
H          -0.85176491540491    0.10564408405145    1.68942360580133
H           0.73172850392731   -0.33794111948079    1.69298962435666
H           0.28153322883421    1.26465938956704    1.57437256419055
