    19
        -40.91836649
S          -1.49835024874021   -0.12835085016686   -1.27565621252424
O          -0.19600930285609   -0.10932125933902   -1.90082289521920
O          -1.76754986636890   -1.34881593863170   -0.53788690487017
O          -1.72963532156168    1.05728373228893   -0.43565312446181
O          -2.56581337147078   -0.04665644257281   -2.43420364960613
H          -3.38436959841030   -0.18854132373792   -1.96852697735182
O          -0.42044350730615    0.99826300007743    1.64768765964561
H          -1.03772553401769    1.10685948201391    0.77689192326669
H          -0.25872784833629   -0.04600865293938    1.68013576839062
O           1.89170404811015   -0.66354729879199   -0.50731803942161
H           1.10421293676921   -0.44894367517106   -1.08160160071644
H           2.55638592968474   -1.00958559922355   -1.10527986973058
O           0.01006846976008   -1.44997228175154    1.35038817636839
H           0.82012806453925   -1.43752319137156    0.81377066719446
H          -0.72410964324637   -1.59740718648214    0.70175734197323
O           1.98416040861850    1.59296327475237    0.93431173131573
H           2.07353621810428    0.82534323701650    0.32702420637401
H           0.48152905173145    1.39306490113819    1.40749630184130
H           2.66100913528842    1.50089605303616    1.60748549761590
