    19
        -40.92136325
S          -0.47810733479378    1.22378466485049    0.44512547207621
O           0.11275354986024    2.46662812768713    0.01487760230621
O          -1.12857733044911    0.50197367917893   -0.66305535554738
O           0.42287636896613    0.35398015487231    1.16685019910931
O          -1.65557597001573    1.58738362855773    1.44611889749776
H          -1.96552041394801    2.43660228860059    1.14432770551735
O           2.19864050799990    1.15995253905100   -0.92457095074050
H           1.49657539445706    1.79848098485992   -0.66361545367538
H           2.63797410698727    0.91859529380971   -0.10431553189697
O           0.73042098509691   -2.11410540457869    0.34022656131063
H          -0.22014649589879   -2.34964810667651    0.42256442985067
H           0.79188020646796   -1.28837226673796    0.87264323796366
O          -1.89198246906458   -1.73058055585822    0.61718354094319
H          -2.16924405180379   -1.46045096301627    1.49431689776118
H          -1.78456196498940   -0.90829517827257    0.10280294501431
O           0.74461543631588   -0.77089962939913   -1.74197656688704
H          -0.11760272875395   -0.27260290205101   -1.49015910835932
H           1.45931008707052   -0.06092281246583   -1.55777923774408
H           0.81627211651174   -1.49150354243110   -0.92156528450473
