    19
        -40.92120567
S           1.15724955447036    0.72054818679363    0.20736251507563
O          -0.01811733790666    1.43599688937757   -0.29086085911370
O           1.55747759248379    1.13149327940026    1.52480411299778
O           1.01495154691776   -0.71416993329493    0.02076813018129
O           2.34268842123331    1.13180202456982   -0.78139853335858
H           2.72553156058234    1.90612871514507   -0.37972419845625
O          -0.79424800831399    0.35865968115191    2.52345802691134
H           0.05617405818016    0.70553699780793    2.19133051203807
H          -0.72443985526929    0.34625420427002    3.48031774604797
O           0.28272642347859   -0.95515314545718   -2.48204469910425
H           0.71566686963132   -0.99263402184162   -1.59807606430851
H           0.79244877777684   -0.33152308670324   -3.00264069144763
O          -1.41214070148240   -1.55296585823805    0.77457486260722
H          -1.43499922503058   -0.92731182829657    1.52956503711581
H          -0.45941457013718   -1.62352670270899    0.57558296717777
O          -1.75424438844072   -0.07030366004661   -1.20371946062265
H          -1.78054111943505   -0.75490021191364   -0.38526793462304
H          -1.12829272762357    0.68402817237155   -0.81745626496580
H          -1.13847687113523   -0.49795971238047   -1.88657519421777
