    19
        -40.92120172
S          -0.16160558765430   -0.25551330386663    0.91587776014813
O          -1.29389952062810    0.07242569563315    1.71352516932460
O          -0.43382305287672   -1.10606166210549   -0.22602155243603
O           0.50097431287167    1.04172228829786    0.37615440449898
O           0.92914262282744   -0.88580785783649    1.77386159471992
H           1.76071924059491   -1.10588734236751    1.21706582968558
O           1.62662680350651   -0.53070153209226   -1.82562457786589
H           0.78351951031347   -0.81847833049406   -1.42535617171532
H           1.61695495844272    0.42938292929018   -1.79693516267356
O          -2.65741656094441    0.28033946955988   -0.89140088716236
H          -1.90639376477423   -0.33151812603984   -0.80333949748290
H          -3.33718333364722   -0.05992341519946   -0.30490645946000
O           2.89546520061348   -1.46501270373018    0.27348669004785
H           2.57561076825562   -1.11017487387841   -0.59768182997185
H           2.95102759795030   -2.41870478946584    0.17639841098076
O          -1.60232348483238    2.44535319662274    0.26428990475219
H          -0.24274877847042    1.73623708448522    0.30286556614903
H          -2.09492230614077    1.80724662886322   -0.30333974048293
H          -1.90972462536320    2.27507666426294    1.16108055896481
