    19
        -40.92136406
S          -1.26374486451710    0.01093219091053   -0.57078039897937
O          -0.10021187194041   -0.53710899515320   -1.29019517941395
O          -2.24193168320799   -1.00205391011413   -0.26117297607197
O          -0.84157656190731    0.79822039043398    0.56562819760372
O          -1.94280248931145    1.01774779462192   -1.59359294846814
H          -2.57683650970583    0.48228961074708   -2.06214118117882
O           1.71847575919025    0.98834292645526    1.08943619819452
H           1.95667577440691    1.36902398197430    0.21535733040317
H           0.74237842188336    1.11446265696693    1.11780302081765
O           1.39086066500510   -1.40344136226989    0.53191472652139
H           0.88826659164598   -1.18696448404573   -0.33720298620692
H           1.68779687337018   -0.40090861966707    0.85606289330007
O           1.42191694108776    1.66669997061768   -1.47054138310451
H           0.82442078055802    2.39932119391177   -1.62996463695817
H           0.89016890545709    0.85598323821025   -1.58128578070047
O          -0.79279108065246   -1.78163945701360    1.79705137680166
H           0.62642467183771   -1.68629951934936    1.15168819418172
H          -0.95142219436502   -1.05633050592588    2.40762987501507
H          -1.43606812888720   -1.64827710133077    1.06430565826099
