    19
        -40.91327666
S           1.75133814180416   -0.86815102941359    0.00183382143487
O           1.50886160173204    0.47278436726168    0.72825415635522
O           1.26585803096227   -0.72301766656081   -1.35600699693781
O           3.07537212723745   -1.31736542108390    0.18858250295426
O           0.77842261559722   -1.83389306600583    0.75420160218695
H          -0.10825094955477   -1.76907560656075    0.34651506828302
O          -1.89061172327640    1.10052809615063   -0.26123025926761
H          -1.94195258405418    0.19150807285137   -0.58716985836764
H          -1.71816061849915    1.01889962343679    0.69534403669635
O          -1.18429430637092   -1.49127465109816   -1.03082220763703
H          -0.32710425679590   -1.19043525906445   -1.41000065133501
H          -1.46204312186448   -2.26037921118660   -1.53205170901707
O          -0.83328256360401    0.68000197443024    2.21828539306529
H          -0.77971340355490    1.33145839028839    2.91968975171662
H           0.07231938541621    0.52565919059040    1.90961505661132
O           0.47238183658598    1.89904204232166   -1.02290450901796
H           0.69070862034843    1.33779243455893   -1.77586263152951
H          -0.49362290300588    1.73392493396376   -0.80978664315496
H           1.12377405057435    1.16199279597783    0.02351407726379
