    19
        -40.91893295
S          -1.52879724334191    0.27547134991025   -0.78280071147185
O          -2.51722952534600    0.36675804722495    0.26145315444038
O          -0.53197336255071    1.32797583422043   -0.78267029255851
O          -0.89673957912260   -1.05189088503699   -0.83147484361627
O          -2.31185317863806    0.42062591706148   -2.15667098762937
H          -3.15273499356591    0.01434617742060   -1.96931675375540
O           1.17776342709172   -1.15609619499684    2.11208210631288
H           0.69245100836725   -1.89468697043972    2.48506943569396
H           0.55956526313163   -0.37774091904504    2.13980664317322
O          -0.53924942000600    0.82283613254744    1.94990942491031
H          -1.37778322023835    0.60746572778770    1.49378955572674
H          -0.17588492450648    1.55435089769552    1.44193531985392
O           2.01115870259372    1.02082335596338   -1.16368086443099
H           1.05883805585049    1.26391403513363   -1.02700613730158
H           2.20087255538685    1.18496512856718   -2.08922528155136
O           1.50516695825238   -1.34245857899139   -0.38875326809243
H           1.48675903994230   -1.31882606928222    0.64653351269318
H           0.46613601181689   -1.28063493099146   -0.64076101120225
H           1.87353441488279   -0.43719803474579   -0.69821901119530
