    19
        -40.92079108
S          -1.02631473265996   -1.04890276294186   -0.23199589830722
O          -0.70998376574244   -1.75387235171162   -1.44738168868860
O          -0.09152068948543   -1.35339454621523    0.85315104191990
O          -1.18517624035797    0.38908180014997   -0.39875907781584
O          -2.44066364242418   -1.56540609393694    0.25562829493158
H          -2.34630102307062   -2.51266207394482    0.23685728703959
O           1.78022280325962   -0.99670046830351   -1.90576720124839
H           1.96832586574429   -1.15114910542561   -2.83347069365649
H           0.89017385711578   -1.37698806637581   -1.74089836467892
O          -1.12257929887571    1.79312108580276    1.81581456469610
H          -1.35163244036413    1.27086052183058    1.01099823417513
H          -1.25574443706958    2.71595267027782    1.59021905488582
O           1.28672563439920    1.32250125314524   -0.75472938748040
H           0.32262707520829    1.18003206941760   -0.84393769186712
H           1.68313281385751    0.55562076429218   -1.23134307040783
O           1.15383421572557    0.63666066790430    1.63776857685161
H           0.71040869920294   -0.29089855396077    1.40526270614340
H           1.38469110485214    0.99871455225240    0.66144542876340
H           0.34977421068516    1.18742863772955    1.92113787474480
