    19
        -40.91335385
S          -0.02371960495500    1.89624841720821    0.12285727900245
O          -1.02196021595858    1.60603524674743   -0.86163511161447
O          -0.14983299494688    1.25090544672084    1.38533795100597
O           1.37800829892094    1.66924628264248   -0.47316963253136
O           0.00158914237954    3.44533902861654    0.35035570866741
H          -0.13079799764228    3.83996129680559   -0.50875018884718
O          -1.73435121698507   -2.11518699712466    0.70893592929060
H          -1.56940873837840   -1.83822017977847   -0.21991992417575
H          -2.43669032375151   -1.54977016081185    1.03412652413040
O          -1.01771218040839   -1.01893571628150   -1.63818857727109
H          -0.06135274972453   -1.13981076128467   -1.63705885567895
H          -1.16739938324633   -0.07265971164363   -1.48110808355656
O           0.64940751183261   -1.34741990701764    1.61856791698980
H           0.39737496586623   -0.43878208450287    1.84722610058000
H          -0.20193185001632   -1.79676314569724    1.40272307339938
O           1.66699437028157   -0.82768694523082   -0.65276610600187
H           1.53759223041081    0.66080936746565   -0.58554734888425
H           2.58681551205413   -1.10090399242907   -0.67076557124209
H           1.29737521426101   -1.12240548439644    0.25877890675063
