    19
        -40.91327761
S          -1.44491017281849    0.07646455397192   -1.31469067645370
O          -1.86653899047832    0.68920737560501   -0.07075175078636
O          -0.73392586349949   -1.24840616287729   -0.96263414205241
O          -2.41441106167119   -0.11625466101108   -2.32096327372308
O          -0.27554751521521    0.93623813521765   -1.89652753652508
H           0.19126455023738    1.37482355292985   -1.15749989479507
O           0.23766675204202    2.10102334976050    0.45684535733361
H          -0.65603708468915    1.68859620630266    0.47146080087143
H           0.11322025018886    3.05025971821943    0.51488733890821
O           1.40994772328006   -0.11537745352781    1.69071949089354
H           1.84561860659361   -0.50181916611274    0.90842516116597
H           1.20200971021324    0.79511028560201    1.43957055136777
O           2.03995372620793   -1.15975046362769   -0.75000961276441
H           1.12356894955790   -1.24373024847601   -1.05397572012225
H           2.46584305060548   -2.00226292993168   -0.91661630081752
O          -0.88412409113857   -1.34391437972274    1.51591065997029
H          -1.54366448110789   -0.64844704826468    1.62038591603340
H          -0.81359860582758   -1.39533892251114    0.08241158781056
H           0.00366455826662   -0.93642175141233    1.74305204351193
