    19
        -40.92158992
S           0.86081970850069   -0.88977903289274   -0.80483499722851
O          -0.31098776413904   -0.16283651997598   -1.26964022459172
O           2.12001374763672   -0.38944096535855   -1.28517957312952
O           0.83500374387424   -1.02942828515519    0.65722757843848
O           0.69238022551222   -2.35386519934345   -1.38752826618323
H           1.57836119391838   -2.70311653301864   -1.39901240120619
O          -2.58650937130148   -0.88065318295384   -0.19132306334557
H          -3.29681697478262   -0.39080424954182   -0.61080224081297
H          -1.78598761162555   -0.75464626385708   -0.75343636595803
O          -0.49110921389958    2.03263051152437    0.23706435651781
H           0.47434356191586    2.13149097164113    0.41412098162445
H          -0.51789861365146    1.46636100217556   -0.55916546505510
O           2.09272664219510    1.56334922113870    0.52554835175987
H           2.29384149590447    1.05584169166016    1.31530358480824
H           2.24205346231870    0.95020151893713   -0.22047351532538
O          -1.12658519994674    0.09535810252123    1.66782020966445
H          -0.92930920092490    1.03334076401302    1.19029352469103
H          -1.86633894282807   -0.32048085483213    1.11008593857479
H          -0.27800087871360   -0.45352270668335    1.36393160660998
