    19
        -40.92267743
S          -0.69241708214898   -0.34483226380250    0.73324329613019
O          -1.45771157852110    0.88008181089573    0.55388375048414
O          -0.82542758504084   -1.26119401386386   -0.37640661750056
O           0.73528110332388   -0.01392693480609    0.96787810726153
O          -1.18667405083007   -1.06530091582601    2.01849539123876
H          -1.09575526585395   -0.37155790334947    2.70893527381527
O           1.16953244171224   -1.91973240478246   -1.92311668488122
H           0.33410998410633   -1.82146798307877   -1.40279077930089
H           1.65458239513928   -2.64297264119260   -1.52100145481966
O          -0.64075882407684    1.26481503557340    3.09275905757257
H           0.29452951676678    1.23552213971314    2.86613624692230
H          -1.09475227198568    1.54834233818551    2.28319610648675
O          -0.62660934507226    1.32214297248224   -1.89169601368741
H          -1.03777716599742    1.30506949359376   -0.99453477427151
H          -1.07985795566176    0.63809081606036   -2.39231454922350
O           1.67893505836257    0.47463129582844   -1.24526540591633
H           0.84098768924192    0.93813182052696   -1.62727768755949
H           1.37763888830246    0.30738233426104   -0.21496179121037
H           1.65214403952410   -0.47322500584811   -1.63516147801570
