    19
        -40.91483131
S           0.98805044020701    0.79904970613901   -0.76485348964528
O           1.30644930404141    0.49475133689622    0.60598568002146
O           1.68613645542383   -0.18011485706402   -1.69773453072047
O          -0.39417023564714    0.91458864010976   -1.08640098814344
O           1.69156101166513    2.15601707046596   -1.11338877497945
H           2.58715089746582    2.11417165378562   -0.78344150560787
O          -0.30487498696196   -1.78564534457224    0.50905318965837
H          -1.13875502568342   -1.28460444115602    0.69204193861233
H           0.41005358164075   -1.18573851595943    0.75356602956781
O          -2.23042480785452    0.01518991903540    0.81111665288527
H          -1.86637844637385    0.49539465551254    1.57578032716379
H          -1.90649411284424    0.49962124606693    0.04047141260137
O          -0.47617391349456    1.16994182268406    2.58253880342627
H          -0.22568517716169    0.69226875380094    3.37578516255753
H           0.22617819304427    1.01240395616716    1.93059120244515
O          -0.15725764410363   -1.79099398263870   -2.07005819350044
H          -0.89748880593215   -1.22359205142449   -2.30873001406557
H           0.97296631873251   -0.92091007594325   -1.96032259142210
H          -0.27084304614615   -1.99179951190537   -1.09200030090529
