    19
        -40.91898063
S           0.63257681405118    0.07339259182498    1.50252860643992
O          -0.77220991421850   -0.17922657317483    1.22422763910030
O           1.38419291027838   -1.10110739492783    1.85935612090882
O           1.24431119896350    0.81389227527381    0.38523397455735
O           0.67223312453671    1.06008643232323    2.74004947818681
H           1.50652402682209    0.89078869440232    3.16970806562734
O           0.00580159180641   -2.38124541004009   -0.03318235655042
H           0.71478116315577   -2.42014326118246    0.63117694036203
H          -0.64667453191645   -1.79753726223287    0.39678885015062
O          -1.24465464255786    1.98320090311695   -0.22168535218158
H          -0.36647109046839    2.36882751747355   -0.14651843817391
H          -1.23924455288677    1.23674454221258    0.41288885134375
O          -1.23657990109738    0.50942569302929   -2.37496332034628
H          -2.01380192173241   -0.05030870475193   -2.31875514732408
H          -1.31564286026790    1.17776014905094   -1.63562093719363
O           0.89524762853419   -0.60868775829172   -1.61386668099957
H           0.04876595609648   -0.17208244032030   -2.04182313521365
H           1.16090647110375    0.04643716640917   -0.82776243904339
H           0.56993853963798   -1.45021714022104   -1.10778071967056
