    19
        -40.92453668
S          -0.15357004878530    0.59657925932998   -1.39390688933385
O          -0.70724496537139   -0.75193357521252   -1.44206120908449
O          -0.90987339878889    1.43457037351457   -0.47008443826011
O           1.26672498059273    0.60453471985441   -1.11271949817226
O          -0.32787477546754    1.21890963999128   -2.83513800210294
H          -1.26093916556089    1.15884957879219   -3.01865640954707
O           0.35517023293581   -0.82567950376899    1.97853500699524
H           0.75377224929858    0.13413989299234    1.85533547858342
H           0.76791586076407   -1.39127573706657    1.20004446976337
O           1.18882075262002   -1.94414521119968   -0.12071700495424
H           1.93118354266378   -1.41845710892234   -0.44081908725121
H           0.43971685171467   -1.66741821929842   -0.70543154550939
O           1.17565530976104    1.46935332885584    1.33512200970191
H           1.40470127925651    1.24100588196531    0.40087805354628
H           0.38986845429701    2.02158811486236    1.24585001931813
O          -1.93381194845188   -0.43693938921885    1.00048667569609
H          -1.69002833455923    0.38243635247147    0.49876592229791
H          -2.03895623987633   -1.10224251839001    0.31028282079026
H          -0.65123063786957   -0.72387586950851    1.71423362697375
