    19
        -40.92218955
S           0.53630166622720    0.97079992959710   -0.33142864431083
O          -0.15446624196562    0.31085208472363   -1.43466266150439
O          -0.41084052586588    1.58107357531047    0.60168267688447
O           1.43472753079002    0.04564636186256    0.35156700744139
O           1.38790588091633    2.13513138666382   -0.91638499296262
H           1.99327585110062    1.66392655671062   -1.52601474744916
O           0.28035712968008   -1.39733109212513    2.17044416657925
H           0.79901525810310   -0.92997815981711    1.46146020211883
H           0.72055923818865   -1.19486267295548    2.99876645042271
O          -2.29934908555678   -0.96376523311309   -0.72843697013589
H          -3.02488645621561   -0.56324768676139   -1.21233033097482
H          -1.46830078022507   -0.55013398471558   -1.08676163058504
O           2.46751060446232    0.09604842305700   -2.18153520186103
H           1.56026577609616   -0.11913038477803   -2.43576557378482
H           2.57464277454256   -0.28874312891837   -1.30165315910144
O          -1.84476423807017   -0.15213936662492    1.61833060765316
H          -1.30422352821446    0.69178055353802    1.26352333588605
H          -2.16935234107915   -0.57625082886335    0.73183277543468
H          -1.07837852291535   -0.75967634279133    1.95736669024913
