    19
        -40.91907716
S           0.67129657678349   -1.47553864012854   -0.39197512597065
O           0.46662898025026   -0.97785868952874    0.98518606800532
O          -0.34431470371859   -2.43076953711822   -0.76832654520883
O           0.82824597313989   -0.37650920109452   -1.31658444226394
O           2.05129384502763   -2.24981805594389   -0.35251901352473
H           1.83745113382498   -3.12551920497117   -0.04116560235167
O           1.80034259128373    1.34501199082568    0.43203337903825
H           1.69734919537811    0.63874761932074    1.08330853276590
H           1.63341935845387    0.88407004877265   -0.41355904930689
O          -0.46228646992877    2.60820706754373    0.71523875650682
H           0.46065520338007    2.25281279542618    0.55814679865529
H          -0.41579498139143    3.16490640067313    1.49464150372826
O          -1.92083968315565   -0.45523518731683   -1.46747614511858
H          -1.56175010906943   -1.35815936866411   -1.31668984977056
H          -1.20829235898443   -0.00548644434053   -1.94011729967561
O          -1.61652302739644    0.36778646025202    0.90062546029378
H          -1.24144924686956    1.33602717386918    0.84298585976107
H          -1.90748849185802    0.09682407483114   -0.06103242333375
H          -0.76794378508972   -0.23949931249307    1.05727911781979
