    19
        -40.92120235
S           0.99600292315975    0.24831751035613   -0.06770703032664
O           1.63861710878374    0.62867619968834   -1.28587858215483
O           1.79695037439696    0.19780311315640    1.11329017234865
O          -0.19666279697666    1.19423811576453    0.22947760810561
O           0.30535981556660   -1.11665547472729   -0.31517819320433
H          -0.32621581395002   -1.25935203525193    0.46780513152639
O           0.75138443260623   -0.69771636918388    3.39358434355390
H           1.28981826274390   -0.40971925447377    2.62923371531657
H           0.85899753211732   -0.02498629747745    4.06823305846358
O           0.04308424053786   -0.46795357338531   -3.10864863351577
H           0.80573953821063   -0.10105359613560   -2.61991613587776
H          -0.10440433637649   -1.34058461677593   -2.73517738127485
O          -1.24575002214639   -1.09954447755923    1.69713421710937
H          -0.61163294739231   -1.08561320501058    2.45157406547411
H          -1.59670636431641   -0.20711402864984    1.62148142615748
O          -1.44052822783360    1.37749791302258   -1.97840412658605
H          -0.73427305236149    1.31427204817888   -0.62828042673070
H          -1.21778399265574    2.19750405550171   -2.42540012042442
H          -1.01199666415878    0.65198398301305   -2.50722309793751
