    19
        -40.92135337
S          -1.53318986007699    0.16713037621043    0.24035688712513
O          -1.40681024461118   -1.22671037524895    0.66801435236891
O          -1.11163430746004    1.09113056928667    1.27044517294663
O          -0.87640979564294    0.39333976639755   -1.03746481363611
O          -3.07085953989715    0.41821915489994   -0.01023267977971
H          -3.43628422462143    0.38457965886972    0.86842869165010
O           0.85564206870196   -1.45918035007283   -1.79117997429346
H           0.40091799901806   -2.15328887736665   -2.27195715044371
H           0.20533673571514   -0.73064738465975   -1.66882019915467
O           1.45651499003803    0.60980178060892    1.47098138018171
H           0.51501755139236    0.85616656058163    1.63110523240719
H           1.68670774479782    1.12639076407791    0.66208730682964
O           1.28316918270589    1.97830397437211   -0.78364896383497
H           1.00456958442521    2.88489836032802   -0.64352080769588
H           0.47490035658762    1.47523444731974   -1.00336236451808
O           1.03282737269635   -1.71714245886489    0.74160789883808
H           1.35210466357152   -0.73766914412453    1.10534695799893
H          -0.00107300760802   -1.64670972113887    0.81909196858956
H           1.16855272118706   -1.71384708171081   -0.26727890636323
