    19
        -40.91641700
S          -0.07777765955773    0.91138514842217   -0.71774831811289
O          -1.06529980279486    0.00120373673886   -0.17729445957670
O           0.29692965626529    1.96827784932911    0.17147056872288
O           1.14039518635624    0.13418581413407   -1.17774339348423
O          -0.62958057924232    1.50659298883714   -2.05041669085485
H          -1.40814059385733    2.04378710952539   -1.79380117237745
O          -2.38233825151626    2.53755891734416   -0.37925394702927
H          -1.64797529901610    2.86058940963700    0.15640934832540
H          -2.62361660240015    1.67874154291228   -0.01706265894796
O           0.53147502187308   -0.14052209472469    2.03271042916620
H          -0.26882775937962   -0.22624451331260    1.49578024913537
H           0.86943893934295    0.73737852939243    1.82609755871613
O           1.68950092226486   -2.44492086864579    1.20036129427389
H           1.31700988292076   -1.65915940183991    1.65112943763832
H           2.63474763355692   -2.29896648587014    1.13344852343035
O           0.37573780979834   -2.22917487435952   -1.06968566425516
H           0.87135053054468   -2.49368533559033   -0.24902486897528
H          -0.51522697822163   -1.99557255319439   -0.77974050044157
H           0.89219795307635   -0.89145492874011   -1.25563573535439
