    19
        -40.92136390
S          -0.60912239524948   -1.07927456757332    0.62231496618072
O          -0.63102003508335   -2.38746837904016    0.01647557959494
O           0.75458602191354   -0.65373871223746    0.98427131081958
O          -1.28018338814299   -0.05579231534917   -0.14675348786610
O          -1.38504513943220   -1.19151660285802    2.00303224080746
H          -1.25190325080641   -2.09567601105150    2.27338982495305
O           0.11578071096460   -1.34216365112913   -2.28404597482915
H          -0.13061110663826   -1.90031075700825   -1.51178305316745
H          -0.69824840245690   -0.90509101085408   -2.54943633338241
O           0.02544884782236    2.13679860542381   -0.74494239682539
H          -0.68931059600423    1.46653568017335   -0.64991317401572
H           0.21259826147265    2.38151280906626    0.18813567610480
O           0.24770847264403    1.82153523026516    1.89231205941754
H          -0.58383080200198    1.77462713661818    2.36719937655574
H           0.51208099218747    0.89843790270188    1.71892506676485
O           1.66980290066721    0.32446296465976   -1.13639072658237
H           1.05147675507479    1.22378823447044   -1.06740245902866
H           1.50090786208151   -0.10044157327834   -0.21640050729397
H           1.16888429093991   -0.31622499297164   -1.75898797817524
