    19
        -40.91983397
S          -0.05674609590724   -0.60335637037754   -0.67845765502446
O           0.85374993959394   -0.92350558429942    0.39934226922026
O          -0.82751325812608    0.58775130448094   -0.43948775362993
O           0.73064400781017   -0.46262378876847   -1.98607964885142
O          -0.98120364800434   -1.78802302123825   -0.95314664173139
H          -1.85833406570220   -1.61624090701174   -0.44410360622449
O           2.57021978821606    1.14745144136162    0.40260959271169
H           3.46776459607976    0.81690742399185    0.32660467663789
H           1.99922433607915    0.36651984719722    0.53128396315509
O          -2.90694914104543   -1.00029727888878    0.47428628914181
H          -2.79663490455229   -0.08409470507826    0.19142059406906
H          -2.41592971511119   -1.06890227243141    1.32292338543752
O          -1.01148880909121   -0.89593897687494    2.36169935673804
H          -0.87123659484175   -0.05901387552455    2.80994906157353
H          -0.24426118979453   -1.02273863822238    1.77722869182815
O           1.20254784425440    2.00430525679511   -1.72696008651770
H           0.33662505803028    2.16438688731633   -1.33176667230954
H           1.82364038783997    1.90911147017933   -0.97010381473538
H           0.98588147426745    0.52830180736802   -2.06724201149175
