    19
        -40.92136355
S           0.40444465620473    0.29153452020104   -1.29427713278808
O          -0.54422371463427    0.64521108758984   -2.32094946431675
O           0.43494534369384    1.20336151218257   -0.17282687283714
O           0.23948731076167   -1.09853968032406   -0.83454511600889
O           1.84653755564198    0.33777955896947   -1.95716676500732
H           1.68577431940779    0.14775995183580   -2.87709554331337
O           2.08286422106673   -1.17941471558890    1.11472962373054
H           2.83285276176778   -0.66875151608728    0.80516655746342
H           1.49689591973452   -1.29360303031202    0.34269669291892
O          -2.39978208944458    1.01636535755151   -0.48697365760426
H          -2.09872555706903    1.84256462782202   -0.09861078631411
H          -1.85148347428665    0.89583660457417   -1.29527673397845
O           0.13149531593886    0.23941804307063    2.24352241515782
H           0.29389175271865    0.85277753622918    1.49036950360109
H           0.89928331543153   -0.37190333158889    2.18902845617529
O          -1.56931480859427   -0.95880249043442    0.89953407451312
H          -2.08114136132944   -0.20071579252979    0.43962347044648
H          -0.88929074965769   -1.22250995656829    0.17726615927300
H          -0.91451071722032   -0.47836829658856    1.63578509894468
