    19
        -40.91802579
S           0.35237607074453    0.86021885062296   -0.32497185431052
O           0.15829217693594   -0.55788429468812   -0.54017558098321
O           1.61159561713791    1.35763685519664   -0.77972153250316
O          -0.76461991907126    1.65313367396785   -1.00580589912955
O           0.13855297434594    1.15808797046760    1.17180409044432
H           0.58551210423434    0.39660656133483    1.67027922509123
O          -2.23513304939155   -1.65247110987571   -0.89280238755765
H          -2.24550212250975   -2.03599155155373   -1.77164414450461
H          -1.31210522180537   -1.36610575425736   -0.73096237929484
O           1.36569154926465   -0.92999285815385    1.93589846967935
H           0.98289565231560   -1.42513813443466    1.20144101702292
H           2.26977128426140   -0.68169799562070    1.64702738078611
O           3.48309750777757    0.00409335168601    0.58905698162280
H           4.05660040924600   -0.44273679764867   -0.03629923702027
H           2.92768864974728    0.61246401161125    0.06567138464176
O          -3.04967746746276    0.78855495240098   -0.26318707735110
H          -2.91105811283259   -0.17635198905034   -0.41448828057681
H          -1.67310388960671    1.36373379881834   -0.65573056135841
H          -3.74087424332013    1.07384046919583   -0.86538962469355
