    19
        -40.91510983
S           1.25591276161082   -1.34105584982691    0.09556950930669
O           0.78154590016936   -0.78445125359686    1.37494849767718
O           0.27298927942607   -1.04604054361332   -0.95571726213424
O           2.57837411946883   -0.93991137794289   -0.26335998106320
O           1.22990190866776   -2.90444934499826    0.31629430060400
H           0.49019682837706   -3.04907855374622    0.90131018134595
O          -2.20982537141379   -0.84440248295337   -0.19310358673117
H          -1.26988973460808   -0.97592493451733   -0.46624335167849
H          -2.74609873400352   -1.14347819310105   -0.92942378679587
O           0.46247834220271    1.63411908003387    1.07137370499879
H           0.61299802935284    0.60148288752415    1.33203910936435
H           0.88456751694577    1.68185076028578    0.13253941055646
O           1.39645766542867    1.30995321710481   -1.26894694069060
H           2.30507247621389    0.99918109898399   -1.16373413405275
H           0.89563972501260    0.47678577209470   -1.40780158951774
O          -2.01735871077931    1.69894569670621    0.49455282340402
H          -2.17380355584956    2.15562740137862   -0.33480792469679
H          -2.19499399897418    0.73875764889311    0.33122169353127
H          -0.55416444723519    1.73208899130309    0.93328933657294
