    19
        -40.91371021
S           1.54777983712231   -0.69565961674939    0.26910253423951
O           1.69429668336042   -0.78544651880196   -1.14997392115220
O           1.38153425976190    0.61863171898122    0.81856691340405
O           0.46117305599693   -1.63021291929868    0.76909572445751
O           2.83515931374094   -1.30442227341932    0.93456642105199
H           3.08816571811724   -2.04940720354490    0.39384919075973
O          -1.97213642086002    0.88664956943676   -0.78079207131980
H          -1.19202359931812    1.25899484192093   -1.24492351036802
H          -1.83847929632078    1.10728695955370    0.16138599863128
O           0.48691334203693    1.61781400152962   -1.59887459527489
H           0.88041923038667    1.73912655845502   -0.72619240877998
H           0.88398616917320    0.79751028526601   -1.92081947674018
O          -1.07391700068832    1.24306819859616    1.75697105524949
H          -1.02013091931545    2.08081628966606    2.22033478341213
H          -0.15898772160447    0.99040755377099    1.53692462840850
O          -1.55603333932271   -1.62162358500081   -0.65109305752061
H          -2.27804422620631   -1.97597646070481   -0.12537098332063
H          -1.76714321686144   -0.62810146114087   -0.78898691613120
H          -0.40253187915504   -1.64945594850219    0.12622969101910
