    19
        -40.91983426
S          -0.38832828865936    0.61821341437389    0.54296709557827
O          -0.88608592527613   -0.73695697936651    0.63666769379869
O           0.58585940853363    0.79783874326656   -0.50032509349524
O          -1.55069956131339    1.59197286791714    0.35689367779296
O           0.20681189114855    1.03658888900311    1.89213604294233
H           1.20400299525529    0.79555071369574    1.85733662488142
O           1.29186265427861   -2.15562715605878    1.32936185432164
H           0.44343611531585   -1.76679005370005    1.04412208308704
H           1.10643075802134   -2.65410225102846    2.12792929878086
O          -1.64547057586035   -0.94591515520507   -1.95367593225871
H          -0.96800336930132   -1.49078145740386   -2.35987413909939
H          -1.50445207532055   -1.00773776198976   -0.99315554179342
O           2.54006689768511    0.20610694412976    1.40020392156264
H           2.47619731666166    0.47013886351554    0.47400726533976
H           2.31238979700465   -0.75068089681893    1.41720555026078
O          -1.43515534076377    1.71504358763081   -2.16081689472988
H          -1.63693909945663    1.77672137685582   -0.65130400302946
H          -0.46998847590198    1.72599833804720   -2.15681240210095
H          -1.68193510203328    0.77441798309909   -2.30286710178008
