    19
        -40.91245448
S          -0.65028410862469   -1.07507660825730   -0.57525286894137
O          -0.70944484845109   -0.61534011751740   -2.03932605635121
O           0.58533540624714   -1.71649386901113   -0.26769526818679
O          -1.15978537658565   -0.06812338308535    0.30379902467536
O          -1.74871971196320   -2.21845948706165   -0.57563756248995
H          -1.35410383290117   -3.02658664036635   -0.89896047754454
O           2.17100887623436   -0.12023529386618    1.38431244992299
H           1.50615729223241    0.05545248931594    2.07563681178681
H           1.90090043408027   -0.95781462746643    0.98594085420331
O          -0.12196169353672    0.33721690047301    2.79436154341871
H          -0.35189402863603    1.23492341989661    3.04113138928310
H          -0.58474012787257    0.15327460682480    1.95883964402423
O           1.18990060933450    0.94683147105639   -0.82504371729924
H           1.74168781705089    0.53528366769880   -1.49220937485824
H           1.60472336894425    0.69988062872768    0.04009726825210
O          -1.18538662544808    1.84685991507770   -1.64744728839383
H          -0.94834143010704    0.37771599798625   -2.04670406954920
H          -1.63542598062619    1.65597482683039   -0.81495738148287
H          -0.24962602955190    1.95471610273363   -1.40088492068872
