    19
        -40.91338211
S           1.86865358780141   -0.58024078095368   -0.28964950501327
O           1.42234878980908   -0.47738132859886   -1.73250492763073
O           2.53675456034581    0.60998864350019    0.13524985517402
O           0.78152590521398   -1.00834150284094    0.55142895811529
O           2.91364675025795   -1.75203100437011   -0.33705311846861
H           3.70609093415341   -1.40073331517882   -0.73779460465480
O          -0.02867954014272    1.54628175904529    0.76881560770950
H           0.79025441649614    2.04993729101994    0.78359879712370
H           0.25112923591015    0.62031422379310    0.88665513022661
O          -2.51827904029011    0.58270553195113    1.63122970906345
H          -2.42577615263347    0.34818694170212    2.55605625563326
H          -1.77544373805422    1.16378352188436    1.41458341807866
O          -1.86486017110345   -1.25524392172924   -0.29707535678500
H          -2.31446820258747   -0.71640948900398    0.38151558749709
H          -1.00960620004792   -1.49860956129656    0.08623013397418
O          -0.77432528050997    0.62426744845565   -1.70260049734630
H           0.43996957654026    0.02166982585521   -1.81275760130629
H          -1.33795109910414   -0.12243562922875   -1.32891930614812
H          -0.66098432205637    1.24429134599374   -0.95700853524477
