    19
        -40.91387096
S           0.30854264204760    0.57009698840438    1.06415843735274
O          -0.92264240298907    0.60996187524320    0.31424409677585
O           0.35526867434392   -0.45197347534633    2.06416338645799
O           1.50790335607384    0.43915057055166    0.13852436994241
O           0.54821503476936    1.96984205113356    1.71763615521680
H          -0.19833204744954    2.08730491080708    2.34063611772433
O          -1.67671166311131    1.27229143179374    2.94506819850227
H          -2.09971330855271    1.11573208109391    2.09315764277309
H          -1.26377028496245    0.43748993890669    3.19548530365630
O          -0.59781047595274   -2.00982422353997   -0.20621361808770
H          -0.95899069459781   -1.11433632900029   -0.09916106745555
H          -0.07190204342682   -2.16046441920306    0.58441924025475
O           0.24669907024568   -1.58111600194017   -2.71755232955779
H           0.02189490642890   -1.86699629961559   -1.80504255516641
H          -0.56921744364661   -1.64519660380407   -3.21805460886868
O           1.17908625148504    0.83665157822747   -2.31895731292396
H           2.06307427867838    0.85397260078717   -2.69472752784112
H           0.79761014770524   -0.05687180178962   -2.54504761165950
H           1.33079600292992    0.69428511727061   -0.85273631709042
