    19
        -40.91898037
S          -0.53115698816413    0.90360757791936    1.25206231704273
O          -0.61230414645341    1.40243765504161   -0.13205822090064
O          -1.80947293660317    0.47595815269181    1.75632012564008
O           0.51848287736387   -0.09678942904509    1.36180249327978
O          -0.06186137019284    2.13947550549871    2.12313867874963
H          -0.86439813254838    2.58644831338814    2.37893004685068
O          -1.29389469557825   -1.89377765743106    0.64174448608838
H          -0.44219070465532   -1.60292950840459    1.01804429352698
H          -1.93077444425022   -1.33941185437099    1.12375646080187
O           1.37617690862859   -1.05186203400326   -2.10498026922439
H           1.78641015655637   -0.30362227033651   -1.58402167289697
H           1.72339708346088   -1.86453902886005   -1.73148563287709
O           2.12725338840486    0.86567872946226   -0.50246512209325
H           1.70065034744886    0.50190031739714    0.30106466607677
H           1.59773307318371    1.63677365834570   -0.72756990742014
O          -1.03968577830333   -0.60209301557342   -1.52566160060846
H          -0.08131730652237   -0.83053201844436   -1.87135409667855
H          -1.23539266571841   -1.25255659823961   -0.74528306999166
H          -0.92765465607510    0.32583351496647   -1.03198397535093
