    19
        -40.91893413
S           1.44469924466602   -0.39361162015195    0.87979311031100
O           0.70376931537703    0.83535329419360    1.20257962724166
O           1.09684031739505   -1.48309399053394    1.75632394046187
O           1.36491514918554   -0.69307736977040   -0.53642692887128
O           2.96913525288417   -0.05556839155213    1.16686062150032
H           3.06082834919431   -0.24970384908244    2.09481074642491
O          -2.67044625106174    0.07731381454513    0.14486361718567
H          -3.02519984452399    0.15730438044905    1.03244290753236
H          -2.11083013554054   -0.74531642341113    0.14398294720849
O          -0.99870556150037   -1.94252786265872    0.21885172541957
H          -0.32403848368832   -1.88523700562368    0.92560611539160
H          -0.48516861866307   -1.99135047834226   -0.59308477631713
O           0.37310438364017    0.85218268069115   -2.36360586434960
H           0.79787958039644    0.18842132557678   -1.76072459912230
H           1.08797200183434    1.35901329860247   -2.75308242108765
O          -0.90295071169379    1.80566283202822   -0.38745016077289
H          -0.18637354333457    1.46425938516885    0.33125048728278
H          -0.48686542502868    1.52422811340163   -1.28095907467330
H          -1.70856501953917    1.17574786647108   -0.22203202076570
