    19
        -40.91183763
S          -0.35393531864749    0.57614984152860    0.91940724531958
O          -0.46330458044997    1.85164651902067    0.25692830246599
O          -1.61302404527418   -0.17917550230131    0.87564043912900
O           0.73988618512702   -0.25114256488217    0.44109884361887
O          -0.06268026893017    0.86544383748527    2.44596714789655
H          -0.54854155370057    1.66418794669938    2.63456592120981
O           2.65641799414871    1.49081093753837    1.37608085374576
H           2.06875896023683    0.84795972380214    0.95898552785261
H           2.50235635742652    1.41332500456093    2.31918790463935
O          -1.73204028425816   -1.09356112715993   -1.41062419361507
H          -0.99642580090699   -1.80319591590447   -1.31258016960873
H          -1.83413221271031   -0.72763559714035   -0.41305996810938
O           0.30829737439768   -2.49047931841321   -0.84687950200855
H           0.64177780029209   -1.71038425851337   -0.34227829250698
H           0.23657917365794   -3.21175866164347   -0.21852888336054
O          -0.38842629507495    0.91001633669697   -2.16899197343706
H           0.54166532177809    0.70384913012049   -2.29579595559859
H          -1.26848285184398   -0.29605419069876   -1.88311217844282
H          -0.43474593527341    1.43999785913112   -1.33601108915584
