    19
        -40.92174072
S           0.57798732856317    0.14685297924125   -0.66824775068348
O           1.08280630282897   -0.50756356744630    0.60467084285242
O          -0.23738926787285   -0.78488451288666   -1.41841289402247
O          -0.06102844189779    1.39592639518774   -0.37435861851505
O           1.87071076366819    0.42361440234590   -1.46613518315550
H           2.12761026450167   -0.44392526051833   -1.87324779031554
O          -0.54897434818998    2.21787330806448    2.14160896940717
H          -0.40853083385646    2.08486568626897    1.18496159280132
H           0.20097130840810    2.72373257337861    2.45883274995244
O          -2.37050196023643   -0.35476657423939    0.19196639735580
H          -1.75542455305195   -0.64714259365309   -0.50073109063463
H          -2.51461627996783    0.58231262983474    0.03599308565302
O           1.87424585496231   -1.95484558786489   -2.50633707076208
H           0.95932332956918   -1.87484576160129   -2.17868115771015
H           1.82399156692960   -2.01568079022086   -3.46368161854472
O          -0.73130186693330   -0.43167743609101    2.28050467119164
H           0.33186387435877   -0.53703061344198    1.39031208998062
H          -0.72436300020751    0.53094914820809    2.48949147500172
H          -1.49738005171175   -0.55376442462822    1.67149130000650
