    19
        -40.91237497
S           1.13314515430907    0.63761867645375    1.12634037948570
O           1.66434479585776    0.93699569880009   -0.16980032105241
O           0.16965340920285    1.72941556938097    1.58243811822315
O           0.56966424367392   -0.66475112873361    1.29228767139818
O           2.28909732291258    0.79419728774171    2.17570845395758
H           2.76447082625774    1.58879017205125    1.94250118930202
O          -0.82835949926282   -1.40408076701134   -2.31569028225223
H           0.09079247030788   -1.58629807453673   -2.02009096068667
H          -0.77698167494022   -0.63868784338094   -2.89034920069352
O           1.60394895134889   -1.58039284022030   -1.17743457032056
H           1.75841149351970   -0.63577330097829   -1.01478069112565
H           1.39223538726971   -1.94718459254339   -0.31363629677556
O          -1.89602437062849   -0.91346310866077    0.08294603075243
H          -1.10888243775108   -1.06986098710408    0.62666713645528
H          -1.64350152876241   -1.18565413358621   -0.83004319482654
O          -1.87822560862985    1.63534763640891    0.17353259880753
H          -0.68926385300890    1.74570346942925    0.97389649519033
H          -1.97606103629374    0.62575415192384    0.07564084013748
H          -2.63846403533250    1.93232411455421    0.67986659392824
