    19
        -40.91989981
S          -1.41655899064805   -0.22062996522812    0.08923955287523
O          -0.37475513256087   -1.20734398419088    0.32468496931355
O          -0.79930647289587    1.11636973433571   -0.11968314728141
O          -2.30684088444595   -0.57490951827134   -0.97426361664722
O          -2.22997819436700   -0.08412767765539    1.42934447591505
H          -1.56553776217617    0.04105134239852    2.11255312988746
O           2.06139433727928   -0.38047846102216    0.61992455268878
H           1.92426323398302    0.25004350030704    1.34222358231674
H           1.23060593877215   -0.91510461141243    0.62739015967174
O           0.34027346144320    1.17916582965806    2.23098180794485
H           0.29579039160644    2.02395635004256    2.68282441426479
H          -0.07921162396266    1.30692734938410    1.35403188418585
O           1.20835711582712    0.65673825300476   -1.49611646206731
H           0.36618917474878    1.02590293061166   -0.99840522844887
H           1.74652482003875    0.23985874338676   -0.68320926213650
O          -0.17949970239759   -1.25876338662586   -2.44791039654456
H           0.79044682660227   -0.12457714051260   -2.02052682207944
H           0.05547893433105   -2.05769187013369   -1.96557548824616
H          -1.06763546112598   -1.01638743804105   -2.10750809562073
