    19
        -40.91790596
S           0.20677499922567   -0.86377254953579   -0.51470904314145
O          -0.51153830388197   -0.01303360643190   -1.54565229106736
O           1.62631331404676   -0.68656995807090   -0.62338643966618
O          -0.33045448078988   -0.62812393611545    0.80099803513124
O          -0.17286096179922   -2.31090979887989   -0.95878537612027
H           0.30182247666527   -2.89273027958776   -0.32890580477103
O           1.36038724807729   -2.86124474448432    1.10088590641492
H           0.84408341682425   -2.27695067882524    1.66706988927101
H           2.07277830783176   -2.32119901843876    0.73971833071498
O          -0.68153614035672    2.04408941857848    1.27479029643917
H          -0.50871431188962    1.11657879830048    1.49620136290176
H           0.08997562526431    2.31224029221813    0.74209152000411
O           1.38060252804533    2.02998265282660   -0.51095029320499
H           1.67786204959679    1.10709707216423   -0.53106696955251
H           1.15691483620891    2.25818074852685   -1.41575466342381
O          -2.39756019426786    1.21452683632994   -0.47080529033798
H          -2.92149791076768    0.57719192923742    0.02119576642178
H          -1.83839584085106    1.70009157893806    0.21297989864887
H          -1.35495665727999    0.49455523285478   -1.15591482493024
