    19
        -40.91782056
S           0.12129796883641   -0.66024279538281   -0.83753118482259
O           0.10990178341101   -0.91039681688225    0.63297538099885
O          -1.22256483185370   -0.70390560293659   -1.36620204187791
O           0.79105605835671    0.59353315414302   -1.12154941306357
O           0.97348054928058   -1.80182885724235   -1.45866271648111
H           0.62264594598867   -2.62404198715092   -1.05187016880796
O           1.65493570747443    2.22836088754346    0.69595406186513
H           1.76198805767386    3.09282295949530    0.29468287068879
H           1.52357002859588    1.58524824742109   -0.04633120396221
O          -1.89581357762247    1.64564481360709   -0.51829625709068
H          -1.82182901522384    0.72366993592946   -0.88213431973426
H          -1.42519624449662    2.19425400469818   -1.15116210121971
O          -0.01961774839886   -3.53880464496527    0.25190525436941
H          -0.16003030227693   -2.66519704726509    0.65997874919480
H           0.62053587760861   -3.99991068693783    0.79926846951134
O          -0.52896341160077    1.27026062176817    1.58122905284935
H          -1.18031102482845    1.52702886792931    0.81588457621221
H          -0.26624077050127    0.26693032584132    1.30273944755629
H           0.34115494957751    1.77657462038556    1.39912154381773
