    19
        -40.91983402
S           0.37043505228798    0.73179545080795    0.39718799942782
O           0.92767501895567    0.33740996731376   -0.87835108106441
O          -0.77874675623023   -0.04347580818266    0.78216204741110
O           1.45301721807914    0.63418455919669    1.47797142504541
O           0.02534579502725    2.21985466036856    0.38151733663496
H          -0.97502439790244    2.29988443992500    0.15591874201845
O          -1.38128568788777    0.55386449026966   -2.27418973843122
H          -1.67635753325399   -0.35264032016113   -2.38479616630488
H          -0.46721110948951    0.50358472921364   -1.94511564014127
O          -2.40647792270864    1.95723511470945   -0.23887396291917
H          -2.22582144592050    1.57644183339491   -1.12701810043981
H          -2.52012529518433    1.19690387300889    0.34455194011485
O           1.77023292449649   -2.17900437074523   -0.43765090386510
H           2.69776047708338   -2.25041152440520   -0.67242163782752
H           1.47755898453965   -1.29718761622297   -0.73610845021288
O           0.98114784362558   -1.77144628210071    2.08314864323154
H           0.03172342515534   -1.65304575734208    1.95566137119330
H           1.31348967704913   -2.15459133498184    1.24038502341310
H           1.38266372227931   -0.30935610407149    1.87602115271572
