    19
        -40.92071443
S          -0.77265401671909    1.26432767354703    0.01007621198807
O          -0.80506085105896    0.35571530880759    1.13274883319147
O          -0.03553564164507    2.48197502987816    0.25796596202094
O          -0.29030650609261    0.57264618255596   -1.20191331273804
O          -2.26203673717449    1.68798817840667   -0.30478254922434
H          -2.17400376223294    2.54429218296108   -0.71361318011218
O           1.90176535003297    1.20114133754496    1.46643998646269
H           1.43684158919381    0.88559705334780    2.24694335286255
H           1.28557689794447    1.84572059654023    1.04480304662761
O           0.09640796422714   -2.08900389690402    0.79217032796133
H          -0.44918110051359   -2.35716331786348    0.02286884831238
H          -0.37660890166375   -1.30127046878904    1.14709521458824
O          -1.25950040510295   -1.91143413870237   -1.49425842149763
H          -1.04414742501742   -0.95797775189401   -1.46611011948875
H          -1.15209057951492   -2.19029391820529   -2.40481214623578
O           1.74533750313297   -0.60856883714593   -0.31007398446790
H           1.99082698316729    0.07325829363914    0.42172441188529
H           1.14686787478540   -1.38073041083043    0.19325279842268
H           1.01750176424889   -0.11621910688342   -0.84052527057770
