    19
        -40.91892628
S           0.03056934693895   -1.37316856496698   -0.41489857392702
O           0.91866578810208   -0.89885349692155    0.66327185496830
O          -1.16299636341995   -1.99134703409858    0.12111358104223
O          -0.21260946011753   -0.33009895447885   -1.38024711336298
O           0.84520024978192   -2.50469416899548   -1.16094780533508
H           0.77341153472693   -3.26494656428541   -0.59120576548852
O           2.25264809668740    0.75721342858676   -1.19264332690966
H           1.50822529637142    0.22998026208348   -1.52783129180067
H           2.52939304872073    0.30524124076338   -0.39012979266690
O           0.13513594011501    2.31687197375008   -0.72268212096128
H          -0.37046807656656    1.67140864185521   -1.24185863964677
H           1.06969909070750    2.08015693446705   -0.92003491783278
O          -2.40493768899707    0.00609597230382    1.22398757978464
H          -2.89451981993115   -0.33233336389660    1.97682476065134
H          -2.04669634327217   -0.78490867230847    0.74538181896088
O          -0.16474693580773    1.17697394790593    1.48288641294226
H          -0.05525052268943    1.78571685598579    0.61403704641040
H          -1.13115002331480    0.83946430801457    1.47577772994567
H           0.38042684196701    0.31122725422650    1.23919857322911
