    19
        -40.92174068
S          -0.08575674101016    0.50015422743089   -0.74002553247090
O           1.30429439282890    0.09031101000582   -0.28922071605561
O          -0.79124840107073   -0.64195369412386   -1.28187494305258
O          -0.77724967730236    1.18257414923234    0.31403373333457
O           0.18875844459199    1.49881123070428   -1.88526177272811
H           0.41460640779599    0.94533965380199   -2.67696309895772
O           0.37794459071313   -0.40024562892184   -3.64537168160917
H          -0.06795218889263   -0.85016070648721   -2.90400704823163
H          -0.24297737315427   -0.38648134149744   -4.37816669107443
O          -1.37432855306964   -1.57405193276683    1.19164543457708
H          -1.29296356117891   -1.42366775254954    0.23535438994694
H          -1.90295712289471   -0.84540749312044    1.52744769977039
O           0.20828978253406    1.35752861574491    2.81269276104717
H           0.74470482236076    2.14876316522865    2.88478582888478
H          -0.26042184321255    1.41784971361257    1.95871077335035
O           1.10833444081214   -0.98317834518706    1.92758284700561
H           0.23865124716073   -1.42991595970086    1.79784122610773
H           1.30338666298472   -0.41527572902232    0.67342950443972
H           0.90688468007593   -0.19099319248452    2.47736729569339
