    19
        -40.92343660
S           0.04677723349602    0.36300196410897   -1.64690744299346
O          -1.02280553312323    0.77038002756154   -0.74962218571274
O           1.33283227771939    0.90240820915579   -1.25929181102806
O           0.09138286009659   -1.09071373862669   -1.81072008950415
O          -0.31334765937940    0.95632247965521   -3.06124391244688
H           0.40477719939180    0.64909727289993   -3.60576551446132
O          -0.25796068537494    1.51217547443792    1.68176653430369
H          -0.55301309311007    1.38281606943473    0.75331560393982
H          -0.07143199183038    2.44725074114302    1.77588329989244
O           1.77258357961586   -0.14657467524938    1.09624772456145
H           1.16562595201674    0.45376968704639    1.57763133326117
H           1.84017374080397    0.25913757273081    0.19903128636653
O          -1.85581209516962   -0.89061108403676    1.16613096545762
H          -1.82021194049774   -0.31938529968606    0.37083627023786
H          -1.68854595037769   -0.29831745622184    1.90755004411792
O           0.29768649460564   -2.05454490742338    0.46924417579690
H          -0.60778085267875   -1.75107928305653    0.84942467704661
H           0.22840747069682   -1.80171268376517   -0.54277348220071
H           1.01066300312266   -1.34342038012390    0.82926254338699
