    19
        -40.92136399
S          -0.93764077686817   -0.77776011648673    0.66251174584736
O          -0.01630088723967    0.10691238830168    1.39709105362582
O          -2.31216686960898   -0.36088727917087    0.78743770401268
O          -0.49392957673174   -0.96467741390541   -0.70058786235748
O          -0.81127541105866   -2.18946838335936    1.37807029818162
H          -1.48442663145234   -2.17086896980264    2.05240934433753
O           1.65593499866439    0.29365643380482   -1.51086715196920
H           2.24572779716812   -0.09853143259511   -0.82939876148017
H           0.87089392990015   -0.29997764875439   -1.47966136043929
O           2.33539936984987   -0.99521106991412    0.71943460409528
H           1.53749571906982   -0.61508158531209    1.13326189780448
H           2.19594470111175   -1.94347832782112    0.69661715226064
O          -1.92793853629572    1.48210897014807   -1.05609496397125
H          -2.23947503434800    0.88116142782622   -0.34167187020437
H          -1.87991793664335    0.93366494388154   -1.84411947091228
O           0.42058412174660    1.99344478362413   -0.19893209733764
H           1.05362982674653    1.38134499582339   -0.85063137718915
H          -0.51345372963346    1.97921610401526   -0.61841592967363
H           0.30091490545074    1.36443217976489    0.60354705545766
