    19
        -40.92217213
S           1.15256930794683   -0.63671964462332   -0.41746416157635
O           1.26943427925469   -1.80980502139874   -1.23510461906847
O           0.61698932138330    0.52182476828466   -1.14435945552880
O           0.46760955010399   -0.81537188905335    0.85032314119133
O           2.63859349601620   -0.20893874428475   -0.00742855194264
H           3.19372600724984   -0.58037694703617   -0.68671821974574
O          -2.18248562399231   -0.45537573193712    0.63539230787305
H          -2.16145030207797   -0.87063642644366   -0.25498364178205
H          -1.39315361764009   -0.82557800781159    1.06827311161965
O           0.72415115607121    1.49740731647799    2.04152134472421
H           0.72954609041134    0.54851517923246    1.77790157113792
H           1.60575064634526    1.82842290656869    1.85923149703038
O          -1.35250887851160   -1.43258870873554   -1.70938082933591
H          -0.44645188744037   -1.76104278986808   -1.57188578703064
H          -1.28600683367627   -0.78854310791985   -2.41842923871678
O          -1.05575681143329    1.73401629703810    0.21512570917471
H          -0.36666586946469    1.31052314661056   -0.46503323490225
H          -1.68051917648435    0.89249883478141    0.42538267849821
H          -0.47337087403934    1.85176856009440    1.03763636826824
