    19
        -40.92343664
S          -1.63926014952483   -0.24039163225008   -0.31644926688824
O          -1.63612088801639   -0.91068282778884    0.98462926108947
O          -1.64138739361954    1.20067463264184   -0.18109978049602
O          -0.56396318549411   -0.71886561650178   -1.17085716689500
O          -2.98393395188744   -0.65608080680412   -1.02425337969284
H          -3.64617459037960   -0.33858678228424   -0.41833972286891
O           0.64251016546939    1.73197459329694    0.97770653024912
H           1.18214686898272    1.62143529738896    0.16698239702657
H          -0.28573154727575    1.73209090443162    0.64221039777719
O           1.67919141672906   -1.66422973974900   -0.07766623118997
H           2.28226085155107   -1.05177754592069   -0.51319407489572
H           0.83728059445936   -1.58784723981461   -0.57328962500996
O           1.50135493058095    0.92783335184247   -1.43698596818326
H           1.43452809272580    1.53994202710854   -2.17108541886676
H           0.69520478101518    0.36694805238955   -1.47240917504176
O           0.62244497067580   -0.55903343830387    1.95700624829606
H           1.17277992568096   -1.08504811091703    1.26652254284215
H           0.71172912813305    0.46758430932847    1.67030492164853
H          -0.36486001976145   -0.77593944812458    1.69026752107987
