    19
        -40.92003327
S          -0.85856507841264    0.15522068010420   -0.10082515570645
O          -1.61590110510752    1.41439506072210    0.32707255409911
O           0.01734801560209    0.44071349457823   -1.20898392237495
O          -0.16597833195032   -0.40319064259196    1.03636390394149
O          -2.00001254787947   -0.76385320226587   -0.54065504737033
H          -1.64273968922477   -1.67587697995081   -0.83148324114657
O           1.41092364787085   -1.92782618399887   -0.52488095961073
H           1.04695296865620   -1.44952949534292    0.24051176805691
H           1.54186147027055   -1.25241622058495   -1.19813565798868
O          -0.92102726041541   -2.99743246511765   -1.10343799823696
H          -1.12627569447056   -3.64292127967940   -0.42255711167040
H           0.03035708737248   -2.74310232794588   -0.97553748907223
O           1.57532937494852    2.35182495549232   -0.15923422804416
H           1.10375688569598    1.64782007132223   -0.64490600573955
H           1.56827673620506    3.12473505702105   -0.72757892228970
O           0.07055398296992    2.18613319616024    2.04024783108566
H           0.76413571286700    2.40230155171962    1.37701621607881
H          -1.06561106623401    1.84385660166728    1.08007736204764
H           0.26661488130320    1.28914812832113    2.33692612431919
