    19
        -40.92343665
S          -0.01757175196075   -1.63836281663222   -0.40061534502875
O          -0.66676653816567   -1.79393561908284    0.90191667540208
O          -0.93577231865869   -1.14794828762712   -1.40626622676572
O           1.18994019558122   -0.83317204726136   -0.30713506649902
O           0.44539667699046   -3.07915930196251   -0.83821213955053
H          -0.37398327028247   -3.56331665039571   -0.86671800151659
O           1.41069979483907    1.01439313965386    1.60580052657407
H           1.55719273662219    1.76487191396156    1.01944699539932
H           1.55244219641308    0.22288398862872    1.04587136557595
O           0.98009185327223    1.64957307473736   -1.22351977268264
H           1.12571449425135    0.70078144077054   -1.01304286183000
H           1.19848864526002    1.75525097321406   -2.15043242805654
O          -1.58921941563355    1.23804103600880   -0.55607572974468
H          -0.75490564474529    1.66618876174915   -0.84121119328347
H          -1.55233378238056    0.34824099846280   -0.98147568608392
O          -1.07639540706190    0.49781726007227    1.76739086710163
H          -0.98617349704979   -0.51739564221352    1.53355220768919
H          -0.10034668939601    0.80234682722119    1.87170016844562
H          -1.40649827795130    0.91290095059531    0.83902564491711
