    19
        -40.90759013
S          -1.47142187285643   -0.77285075721769    1.34372688216850
O          -0.50484754959897   -1.72889032736053    1.78285474465868
O          -1.57205265558533    0.46209069579544    2.03774901291694
O          -1.27745056164017   -0.49619587935174   -0.17318438516878
O          -2.87408368185039   -1.48201124653990    1.34702219445941
H          -2.72947314781023   -2.41413455891070    1.19257218769592
O           1.61484661425876   -0.15059881042765    0.97338721791872
H           1.08622250513370   -0.77749591832486    1.48580773396273
H           1.73911700168283   -0.57717347610705    0.09532498234295
O           1.08996344870022    1.52338360893153   -2.41220149525511
H           0.62102438322461    1.82158649934632   -1.62039861192023
H           1.92002825157634    2.00293671362066   -2.43894969097544
O           1.31066867159964   -1.06275150664250   -1.53470331130271
H           1.29358799271625   -0.21426717980712   -2.01790014455011
H           0.39222129862879   -1.33268385115570   -1.45387859988762
O          -0.01395095896012    1.68534342729889    0.15830774735291
H          -0.53199446640893    1.95896253253870    0.92421354031752
H           0.74072851452508    1.13655352266556    0.53042051768490
H          -0.83313377733783    0.41819651167618   -0.22017052242428
