    19
        -40.92453848
S           0.87463925415360   -0.67705070609399    1.04818760037956
O           1.72833741444930    0.21406015167810    0.27016730029170
O          -0.14531726092184    0.07896239718805    1.76580115884014
O           0.31355126949684   -1.74608123038834    0.24915942530535
O           1.79331009822879   -1.36511043047627    2.13329884351590
H           2.15126928756435   -0.64547968868850    2.64517256998840
O           0.09807501761516    2.21750334575109    0.05480911808067
H           0.85713112011959    1.58247443379900    0.10711181439051
H          -0.33260765761361    2.12638772822414    0.91294686283561
O          -1.27674851806352    0.83979203296315   -1.54504136414462
H          -0.76836552805162    1.54096649404423   -0.95949331742219
H          -0.52136619609647    0.22235465954556   -1.92388446421183
O           0.64680241607687   -0.69153946256622   -2.10071566314977
H           1.45131853197395   -0.19674198279302   -1.90501051835514
H           0.54184031199791   -1.28187788962057   -1.31460177164963
O          -2.17935695205195   -0.61680444532481    0.30319424677215
H          -1.78639800927546    0.24672578212748   -0.84866313051942
H          -1.90637018259895   -1.52041108968238    0.10626901608343
H          -1.53974442672964   -0.32813009979310    1.00129224306885
