    19
        -40.91059516
S          -0.79042305706752   -0.48180432325932    0.00156872118558
O          -1.91810164779492   -0.47192330602728   -0.86908830271306
O           0.37355461528380   -1.18607785396128   -0.47674279130569
O          -0.35937220958544    0.96308048966920    0.34493873246178
O          -1.21203747817724   -1.04451984233237    1.37337241517505
H          -0.38997266023851   -1.25363307354389    1.87730860533683
O           1.27491945483065   -1.67735445110003    1.94049922841359
H           1.25561562510429   -1.60203673237328    0.96601165692343
H           1.52322441078642   -2.57974451150717    2.15425462248984
O           0.86404883340335    1.00456700360073    3.01417432125834
H           0.39183713034261    1.25202334331350    2.21370373209781
H           1.26830603057362    0.14888002074926    2.84338088072060
O          -1.30586534204583    0.84509200135810   -3.13889472800237
H          -1.98434269900593    1.50187618462947   -3.30918570488597
H          -1.65182028595723    0.26619786385386   -2.43442651607479
O           0.92279961002556    1.31828433256470   -1.78987500845914
H           0.18219544698271    1.26533446004945   -2.44099740365506
H           0.20286704009737    1.27504819623881   -0.45784114953967
H           1.35256716234308    0.45671019800962   -1.81216131134839
