    19
        -40.90703356
S           1.47305507888909   -1.72293397484959   -0.59140667453512
O           2.15467200153965   -2.96384157561345   -0.64003982443413
O           1.77500293668242   -0.87941094715986   -1.81983703561566
O           0.06475849406422   -1.70962879828890   -0.31532077894335
O           2.12523422474208   -0.86953194985964    0.59549497187900
H           3.06828889101640   -0.99840645297375    0.52592488095400
O          -0.19731141186489    2.11662159774555    0.06178355907611
H          -0.09302548297212    1.43724466779240    0.75282129720753
H          -1.12298101477866    2.38183507865413    0.12857520891270
O          -0.39819474502714   -0.07746928998955    1.73283793250119
H          -0.29572006853796   -0.73730196472321    1.01710359281997
H           0.34023362349193   -0.22279037245104    2.32679482909433
O          -2.74262589385912    1.23029971096313    0.79947689009625
H          -3.61891834672397    0.95833352318470    1.07337322455494
H          -2.11342558911520    0.67924622831854    1.28460204118531
O          -0.27107567265190    0.51494465520765   -2.00122646978651
H          -0.90644354039865   -0.12357803583450   -1.65816105805867
H          -0.19299150288048    1.22430283486004   -1.29814927373280
H           0.95146801831317   -0.23793494488735   -1.97464731318132
