    19
        -40.90985775
S          -0.26547720827716    0.62232642111595   -0.36254002541607
O          -0.84513910948209    0.77445830481824   -1.76655240406573
O          -1.18569774108705   -0.07276384920787    0.49072797446349
O           1.04261531226713    0.01930835219902   -0.44041968924017
O          -0.12379002183790    2.09653799758238    0.08410691173024
H           0.61934713313544    2.15289886994871    0.73033898123188
O          -1.49893115812448   -2.48154555413752   -0.67729992794039
H          -2.42980390828507   -2.71237495969392   -0.70614391412164
H          -1.42583668034706   -1.70036249474634   -0.09873172990086
O           2.03263289116956    1.54614959829258    1.47037745899580
H           1.98533430896084    0.79561142106422    0.84866564452404
H           2.89065427413794    1.96278938859290    1.35799750783043
O          -0.28515239006619    0.66493283108980    3.09752423105725
H           0.59985152758089    0.93062831215210    2.83411076328069
H          -0.73038905902895    0.33812488113914    2.30748759740348
O          -0.04048234619950   -1.44319335748818   -2.63126749062310
H          -0.57237374408638   -0.07835446805720   -2.28343526307118
H           0.82633246281355   -1.40462658081387   -2.21159849732284
H          -0.59369455313631   -2.01054513391963   -2.04334813874965
