    19
        -40.92179446
S          -0.03187001354320    0.94621758974439   -0.17630873129338
O           1.19023944004209    0.16401615094936    0.38022483541126
O          -1.09212186501650   -0.00702332971957   -0.43690573038358
O          -0.38626818218453    2.00097244260183    0.71177586936010
O           0.50336036213712    1.49195109213610   -1.49559868550609
H           1.02428152562017    0.73378300333843   -1.95615631670197
O          -1.93474296383192    0.00425512763165    2.13475302734101
H          -2.31038741859483    0.88702790630445    2.18714077136638
H          -1.78893966697509   -0.15629032642181    1.18706681124559
O           1.74445228620493   -0.52657324956480   -2.37724725028813
H           1.02116373900610   -1.20242549304197   -2.36691568783005
H           2.30291597140114   -0.72673955896072   -1.62015993577820
O          -0.38756751145177   -2.03338432952636   -2.01136768980783
H          -0.74018113664179   -1.38164920927062   -1.37124205789331
H          -1.06216147815806   -2.14508079446258   -2.68386502156992
O           0.60655270138508    0.36786901080461    2.83673696669498
H          -0.34125566780670    0.10052634300690    2.75653306558302
H           1.08684089458866    0.15499510748444    1.39455525997188
H           0.59568901382701    1.32755252695685    2.90698051004439
