    19
        -40.92071400
S           0.81770432900567   -0.46888759496626   -1.14339719334332
O           1.02373752664432    0.46303430267607   -2.22820779606939
O           1.35581239072245    0.04919167840850    0.13006221713933
O          -0.55508572185970   -0.88822020727016   -0.97939876016332
O           1.67399920505120   -1.75407425890075   -1.47765722687423
H           2.40461067547097   -1.41511284981082   -1.98705665582399
O          -1.11414056551807    1.83971757689095   -1.60519959418973
H          -0.28581587386678    1.46005681216344   -1.98301676186650
H          -1.79665831582464    1.19038914362576   -1.79881105866110
O          -1.71527980922025   -0.49707663090659    1.34619837307145
H          -1.06862149511935   -0.94938068530713    1.92817332310769
H          -1.49783161627842   -0.84007812021667    0.44890679527708
O           0.62036862978763   -1.37294948253280    2.28265764594483
H           1.20792097533995   -1.17106345481485    3.01228494074689
H           1.01318056225917   -0.96442857352240    1.48581104632355
O          -0.49434365107646    1.59737900504293    0.84662637565492
H          -0.82792866321173    1.85750235620810   -0.09258420939577
H          -1.13911160188817    0.76921803686112    1.17058240997063
H           0.37748299927678    1.09478294626858    0.64402612944112
