    19
        -40.91833714
S           0.23903692508436    0.95404994232555   -0.19424839646281
O           0.66430125185545    1.95417328167547    0.73172654144445
O           1.23182433434703    0.00668755495840   -0.62185015715645
O          -0.93198670977161    0.13039344159773    0.44799627241730
O          -0.44211342604667    1.59780903093869   -1.39920066260334
H          -0.35571993715057    0.92416000776938   -2.17457218839706
O           1.58533011786897    0.87972653029937    3.00954092323613
H           1.38276646777640    1.40397959639183    2.21047818669764
H           1.17702360137352    1.33990844217471    3.74553298051954
O          -0.08228057042378   -0.31882822004338   -2.99076727031179
H           0.70011969003462   -0.56978075132525   -2.47878193792587
H          -0.80940669202410   -0.89872716972186   -2.67904451956263
O          -2.05704039578168   -1.42967735736848   -1.55393161594516
H          -1.80018846460800   -0.93776359056941   -0.75754910323694
H          -2.98385878123842   -1.24097896335206   -1.71272612671796
O           0.63353590041364   -1.28594384704541    1.81574761156138
H           1.26514957765455   -1.37854621461124    1.09229576905722
H           1.02782548836722   -0.61687014209207    2.42485598650118
H          -0.44431836780009   -0.51377157197468    1.08449772687961
