    19
        -40.92453849
S          -0.22923141912638    1.21857011326810   -0.88635050938409
O          -1.14061330252124    0.17033186144543   -1.33245340275276
O          -0.53401640773881    1.62163844481995    0.48162703461957
O           1.16154454499476    0.85645537883364   -1.06182261506782
O          -0.48391010696713    2.47530956423199   -1.80876238938628
H          -1.39975268497909    2.69954008945348   -1.67186102479927
O           1.51714503008145    0.50999038008901    1.63010714466943
H           0.74259215821989    1.05667300880561    1.34575521054379
H           2.16213587162462    0.64883616025030    0.92688355037747
O           0.45847954163692   -1.74033372818564    1.21883399779904
H           0.68295056007650   -1.87499176595682    0.20549373987935
H           0.97966136551918   -0.87647608173699    1.49811067439167
O           0.87045267385973   -1.71613155985891   -1.26783548470468
H           0.00066577162612   -1.71109789009172   -1.68477483549023
H           1.15576424248298   -0.77090428088699   -1.31846600310433
O          -1.84363352045015   -0.74361474548055    0.98836578668505
H          -0.54491447664698   -1.44600595222507    1.22433886603844
H          -1.81593068887263    0.09088693383846    1.47097505992876
H          -1.73938916455229   -0.46867590348432    0.04183521149279
