    19
        -40.92079102
S          -0.30860209854095    0.98777062410915    1.06601260494582
O           0.97522873843469    0.76710608618245    0.41474126106488
O          -1.08155112280498    2.06367310306522    0.50100450410775
O          -1.06951830031015   -0.25916150161596    1.16526290216936
O           0.04930392044804    1.39878736408347    2.55194819038604
H          -0.78846957499633    1.67191660051937    2.91246724839794
O          -1.83289413819943    1.05280929832305   -1.82257371161341
H          -1.65582300872414    1.44599780533970   -0.94054276835716
H          -2.07112882921365    1.78282611485178   -2.39709464501682
O           2.13328049114127   -1.52511544495708    0.94795017318157
H           2.97107841982880   -1.55272158324467    0.48140432293351
H           1.81675388526953   -0.59197342003499    0.90232628009802
O           0.38085331850442   -0.37484065350054   -1.91973501019309
H          -0.48159913902804    0.06725520150805   -2.10187284351475
H           0.79482188853916    0.19286242207000   -1.23840499375057
O          -0.09330125659263   -2.09417554542367   -0.17857355310530
H           0.07053752916830   -1.50033116804173   -1.04909134125446
H           0.81367865906361   -2.11892750007808    0.27659755266577
H          -0.62264939202638   -1.41375779312634    0.42817381683946
