    19
        -40.91271929
S          -0.08949641488771    0.49469742118753   -0.19360264222283
O           0.39506933839578    1.84940491200381    0.35872357338790
O           0.13680166468055   -0.53735210631910    0.79215127681950
O          -1.42820791137190    0.60817416948823   -0.67235263311056
O           0.86832973469541    0.24139739609438   -1.37555076661474
H           1.70385546247567   -0.18251622299360   -0.96409604336850
O          -2.12203011716172    0.09775119334338    2.13515820424802
H          -1.26650211306765   -0.25606788524328    1.83722255039680
H          -2.77565271418918   -0.27996442711573    1.54126855428925
O           2.60076806886993   -1.13989131937818   -0.15485534005928
H           1.95691107373978   -1.18410017134534    0.56925301868959
H           2.44370311493915   -1.92666458590828   -0.70629253265152
O           1.45224624528062   -2.55085514328784   -2.20828124366627
H           0.88180400999831   -1.78049303418553   -2.30230711372728
H           1.84654340992711   -2.71598547829289   -3.06737073235509
O          -1.83202305414707    2.61995369000983    1.31001267394071
H          -2.01795555461808    1.79112029719664    1.81094547748454
H          -0.40720371617861    2.30099412516203    0.79014624541768
H          -2.34696052732333    2.55039717957709    0.49982747305215
