    19
        -40.91836426
S          -0.70695150793460   -0.60645040896667   -0.71959845664586
O           0.44254888663967   -0.89166426842328   -1.50922479122036
O          -0.70469117157887   -1.40004308158932    0.60244592508298
O          -0.91071941859618    0.78861171973613   -0.39705911872996
O          -1.96739115902458   -1.15715509369076   -1.41501540185974
H          -2.72242174204276   -0.82949235267192   -0.86379237369457
O          -3.35971824771874    0.06668141249370    0.40558193340895
H          -2.62458128105426    0.69239481411083    0.28906353471960
H          -3.21738304390662   -0.37988610290630    1.24410821313593
O           1.50123836706815    1.50814536038521    0.68048658211701
H           2.10037780551413    1.37119226009483   -0.08084677348412
H           0.60699519269059    1.49449770685054    0.30314332304413
O           2.64629737572134    0.71326868404088   -1.63258483434819
H           2.57923856895195    1.18391338723585   -2.46526935054923
H           1.97517926179020    0.00999964129202   -1.66138809693634
O           1.38831872503765   -0.79113739811131    1.85165825617190
H           1.55759244077287    0.11712321096552    1.45101809911389
H           1.24363264870819   -0.65409451785326    2.79078461046051
H           0.17243829889801   -1.23590499294438    1.12648872019984
