    19
        -40.91836613
S           0.55658404468265   -1.09468060239835    1.54396247860062
O           1.47240803774330   -1.39073751515873    0.43105585314500
O           0.84057507337253    0.20730863175636    2.11897208434807
O          -0.82850896048030   -1.27010936590304    1.17243738860112
O           0.87347276752248   -2.16673066944125    2.65699643132106
H           1.74102324320874   -1.90635743163586    2.95119129489068
O          -0.74994953038845   -0.05874988656284   -2.60593929216155
H          -1.32832536846242    0.07386276458014   -1.82218602051059
H          -0.99103454587640    0.60876143165417   -3.25095405889045
O           0.29909334344673    1.93976594836891    0.26364405898664
H          -0.63563565680093    1.72624180125348    0.10617728103933
H           0.53935155881131    1.44611736338240    1.08825139873544
O          -1.98516386636831    0.49560117396903   -0.29454342134173
H          -2.92438915716246    0.45869437666601   -0.10588940806109
H          -1.57187956787274   -0.20824768972505    0.27966258488901
O           1.43650308655669    0.35359825097609   -1.30475028061314
H           1.53106413377531   -0.44836425165183   -0.59801058862182
H           0.67442520100958    0.09864438305251   -1.92250722959768
H           1.05038617299129    1.13538127741183   -0.70757055479767
