    19
        -40.92179447
S           0.71980212164983    0.25283874316637   -0.58698860178349
O           0.46698802497597   -1.07729845734017   -0.06981966456499
O          -0.41163949867861    1.18848268142736   -0.07773322832666
O           1.99316951357748    0.79070560207151   -0.24629433842558
O           0.50056909452843    0.26701598770088   -2.09586380483484
H          -0.51033711390141    0.17604140026776   -2.26302209982462
O          -2.01740298687944    0.07027580249260   -2.21277269112279
H          -2.15843806135379   -0.75877822659409   -1.69050381011254
H          -2.27156293108774    0.79383096686293   -1.63228017604263
O           1.64047971096614   -0.53444646928287    2.30774838009137
H           1.17299729043306   -0.92568284795734    1.55051990768682
H           2.55875037541150   -0.47029658110399    2.03278776357390
O          -1.95524724934242   -2.03080986114078   -0.62177303552908
H          -1.86155067993474   -2.92588760925470   -0.95321860999281
H          -1.07112575228420   -1.76151858088362   -0.29821255254699
O           0.74047882513880    1.95607074937505    2.04351325086500
H          -0.08442824131954    1.57938322350150    0.80532622235791
H           1.02142260592446    1.06211773862338    2.35688905735377
H           1.52707495217178    2.34795573808000    1.65169802117621
