    19
        -40.92122940
S           0.48137018551709   -0.02659844216610   -1.02577741072162
O           1.30244730400500   -1.05065658212460   -1.58789783079218
O          -0.85243865419947   -0.45131861119023   -0.66752233073363
O           1.14882619266062    0.56682767317243    0.24535697859770
O           0.42634860359824    1.17586206923512   -1.95868400421548
H          -0.11055220190906    1.92787936574139   -1.52098888925505
O          -1.01099948988316    2.92316071786303   -0.79763055842110
H          -1.81760008955051    3.06060061465929   -1.30028287625096
H          -1.27506350113034    2.44619668594476    0.03159465260984
O          -1.62215678482605    1.29329364478861    1.17683575422785
H          -1.48959442438038    0.53997607928690    0.56601186779101
H          -0.94860118057741    1.20957361281682    1.85542738307875
O           0.20927812371527   -2.96341066044515   -0.04394566032047
H           0.71893531504683   -2.54593676566991   -0.76014644118623
H          -0.68417166014459   -2.62150738063995   -0.15473384921498
O           1.27208969220879   -1.44216966388406    1.81541832638606
H           1.24135162075385   -0.17182812943390    0.93021783096575
H           0.83926804939421   -2.12465537348941    1.23519490555279
H           2.17126289966612   -1.74528886446457    1.96155216184392
