    19
        -40.91226057
S          -1.14297589284708    1.09990364580652    0.86376742500564
O          -0.24515748464421    1.43040867482206   -0.20265492446688
O          -2.03183007090438    0.00489473695636    0.63533836147142
O          -0.39376779091225    0.94064643906317    2.18274908863452
O          -2.00758762813184    2.37759041731288    1.15915142798733
H          -2.72713445284071    2.09430875955664    1.71921128069353
O          -1.33334892948732   -0.34451216609826   -1.98737135190050
H          -0.90032089542760    0.47411428801672   -1.71006651081384
H          -1.85109235913821   -0.60117097886462   -1.21278441769484
O           2.03135326279088   -0.12697358031946   -0.38727623901704
H           1.38217969781649    0.58780248677047   -0.47161980751221
H           1.74017713776229   -0.82281435696313   -1.01999787027171
O           0.90287566076117   -1.83238362891599   -2.11725773769394
H           0.01804829455972   -1.40360566430926   -2.12015513194432
H           1.18650863946784   -1.87115414170923   -3.03181991724053
O           1.32803093036069   -0.84063666199802    1.96836572064227
H           1.67662145098620   -0.65421398311068    1.03261773753437
H           2.05789207202243   -0.66978157003739    2.56886242412822
H           0.30952834773724    0.15757730405943    2.13094045245149
