    19
        -40.91966000
S          -0.40490730273212    0.69295825035457   -1.51274486083288
O          -0.73897148779612    1.82727157102188   -0.63724274040748
O           1.03643161802013    0.56286677275620   -1.65969019037506
O          -1.04493070687517   -0.52372008865618   -1.07805557657383
O          -0.98558253597317    1.05668933244897   -2.93000466050634
H          -0.52866082167272    1.86325408946272   -3.14783253809293
O          -1.63376651539976   -1.03677981231452    1.53136662272346
H          -0.92827016591129   -1.71584242011856    1.39549528108046
H          -1.96808773398524   -0.89384821474904    0.63082726251434
O           1.96904641254004    0.07888471042025    0.67580006839836
H           1.68765857468002    0.24051127713267   -0.27141780489624
H           2.81887084543075    0.51044342386997    0.78214028834714
O           0.41520125331593   -2.29759906814743    0.44456216757829
H           1.21651677332448   -1.78651932522215    0.60661948650929
H           0.00852088694047   -1.90447193654999   -0.34518555916291
O          -0.23029810049901    1.02329522508086    1.63900506052582
H          -0.50813991755903    1.47417187570704    0.71594000644723
H          -0.87373232085177    0.16586868820009    1.71631346460289
H           0.69310124407568    0.66256564893838    1.44410423205714
