    19
        -40.91880976
S          -0.43408072343694    0.22354599149048   -1.07989807727116
O           0.90626110366240    0.96888207770782   -1.12783770047447
O          -0.23075563066159   -1.06593783534358   -0.45103746583001
O          -1.44497740937161    1.03510008292674   -0.48894805311329
O          -0.74589016561000    0.00134583539357   -2.57200778191392
H          -0.17183293013927   -0.75565130257097   -2.85897115633858
O           0.67904428836599   -2.16314119638667   -2.67868257896261
H           0.20897935944177   -2.96311970015817   -2.92726069373515
H           0.54903972118428   -2.04211824635683   -1.71975755687158
O          -0.93989013124627    1.45805689722144    2.15820212280927
H          -0.95840307872041    0.51660411719850    2.42423290023825
H          -1.39263675406681    1.47871071486077    1.29998650348966
O          -0.60159995693706   -1.22173284561793    2.24526945754436
H          -0.55141472168495   -1.26378596041832    1.27425963961335
H           0.26181722261492   -1.48426553095510    2.57057811780572
O           1.44711311449950    1.71527508679831    1.21718527437456
H           1.68064919169276    2.64636580335786    1.21648863091087
H           0.55053858055923    1.64967807067397    1.67920541694336
H           1.18803890988293    1.26618795018168   -0.18100699921578
