    19
        -40.92343667
S           1.67539113320797   -0.08415953112464   -0.17889331290412
O           0.99975669571632    0.16755681792694    1.08422354394437
O           1.32112441826018   -1.36482672627099   -0.75262895215627
O           1.47637698869126    1.01276617264197   -1.12734041430474
O           3.21730996106193   -0.11460574075856    0.14322059072685
H           3.60682933627659   -0.25989148887957   -0.71334969988486
O          -1.24781200407057   -1.16585020055490   -1.20456854995747
H          -0.28822880769482   -1.39647133821486   -1.20921410751637
H          -1.51430665810348   -1.29908800338477   -0.27083715331087
O          -1.23463822787145   -1.20972658234596    1.48129017430743
H          -0.34362355024809   -0.79895280326327    1.42500632216573
H          -1.11475577253620   -2.05115530962615    1.92362575184776
O          -1.18334943267934    1.70124111782948    1.14019414494945
H          -0.27923714310320    1.35132786181321    1.28273688874430
H          -1.77021832283276    1.04589035118773    1.53337161965400
O          -0.97848139165898    1.30609148352256   -1.36582499172001
H          -1.19409240833979    1.60175573579752   -0.40538239343856
H           0.06697581482864    1.29417255045621   -1.38263609422253
H          -1.21502063889856    0.26392563324074   -1.40299336690959
