    19
        -40.92037975
S          -0.84720871155486   -0.61371362871022    0.26656065013642
O          -0.87569911801117   -0.15705396438014   -1.11318078926419
O           0.48832764529800   -1.28108231720526    0.54238891751234
O          -1.13118197707328    0.40002042454510    1.23147376884802
O          -1.86444694120803   -1.76383410371425    0.41759822003945
H          -1.78854192863778   -2.30177776591901   -0.41018905647513
O           1.00443107921157    1.74979750897502   -1.25254161012961
H           0.23153993219599    1.15254852041840   -1.25659598286039
H           1.35241531623794    1.75109749728931   -2.14649657750063
O          -1.52492373803248   -2.54632247893743   -2.03980828415216
H          -2.31597810087717   -2.53836662905954   -2.58439343826121
H          -1.17296064567459   -1.63641839578153   -2.03456991545853
O           0.72331396540833    1.78551726631086    2.60472124749749
H           0.54763110071546    2.70874721801774    2.41115307821341
H          -0.05151350015982    1.29039942700365    2.27945138046523
O           2.17755450770220    0.50781433227136    0.79663139786534
H           1.93037495453491    1.06475510614099    0.02440794107595
H           1.83137275215073    0.98992057372113    1.58728438052160
H           1.28549342777378   -0.56204861099847    0.67610468190210
