    19
        -40.92453826
S          -0.88264554545788   -1.12386094022513   -0.52947146159860
O          -1.35909012011568   -0.80074282962928    0.81043847801131
O          -1.03868063024328    0.01812492715682   -1.42387975351079
O           0.46722554314131   -1.64733178907739   -0.52701475245171
O          -1.80807527189387   -2.27575995184594   -1.08759827902954
H          -2.68626904287770   -1.90618019449753   -1.09143233488904
O           1.68879749540477    0.42418474534761   -1.50793972556498
H           1.38623081611853   -0.47552181912380   -1.23164604764927
H           0.96993000857091    0.74168436843788   -2.06727944788332
O           0.96205099910431   -0.64362124983300    1.97106280468630
H           0.01335848053451   -0.74999887159820    1.70928226652380
H           1.41242294045876   -1.33683348107498    1.47461390899080
O           1.36784867997821    1.51802839287554    0.74041558589006
H           1.62762163024492    1.15374476522834   -0.20555762564465
H           1.30620538466935    0.66823628785908    1.34932922369902
O          -1.09337010406699    1.89829373341747    0.35946183519947
H          -1.16547048073874    1.30550497452444   -0.43147249281435
H          -1.54325058078730    1.40361381385431    1.05449757137062
H           0.37515980780247    1.82843513805851    0.63419024666280
