    19
        -40.91833246
S           0.10324428757601   -0.99312562953711   -1.40852344379464
O           1.21946714374432   -0.49200527708537   -2.17102901500127
O           0.54047180833124   -1.67813459316046   -0.18198726906627
O          -0.92250365722949   -0.00896107359570   -1.12418414175228
O          -0.59387195838347   -2.10743808746187   -2.29289952491990
H           0.14167905656810   -2.59871817848030   -2.64600683236854
O          -2.40571198174972    0.00820712722401    0.99958128317684
H          -2.69669029055709    0.91536850616379    1.11315320618945
H          -1.98781420612587   -0.04251794054861    0.10188259997174
O           1.21764641133939    1.42008815538563    1.69399663173434
H           1.20447854058770    1.61496438152278    0.71571737562437
H           2.14204248056677    1.33278783177305    1.93372819629841
O           1.15589561482399    1.80755027352822   -0.89409155984377
H           0.24309651905732    1.99256613844553   -1.13286876417761
H           1.37107206295582    0.99934158672851   -1.40648660998174
O          -0.15986558700673   -0.69777502122873    1.95650005245456
H          -1.12536350552718   -0.43317411494887    1.73794571673612
H           0.15653069098646   -1.20833096778172    1.06171814815688
H           0.39619656009383    0.16930687284366    1.94385396142550
