    19
        -40.92022165
S          -0.62814175627859   -0.16609763227854   -0.65659002242169
O          -0.23716215251122   -1.30457900959505    0.13432455709981
O          -2.14836041495170   -0.01579353589605   -0.70572102372449
O          -0.04400694795663    1.07509913711445   -0.20412667859695
O          -0.26449455663754   -0.42339113963783   -2.12283918740208
H           0.57949625943406   -1.00684496471850   -2.12545312256606
O           2.56746472496142    0.52895150997251   -0.49235005146577
H           2.96931626719129    1.23366440945150   -1.00480021044878
H           1.65730416965622    0.81916956276986   -0.29020894149235
O           1.84057497248191   -1.75375937269724   -1.68153706691268
H           1.45901930821269   -2.24688126198029   -0.94580560338877
H           2.32907802322802   -1.00556586408640   -1.26977091700588
O          -0.89245668982730   -0.24940753545159    2.52325038853805
H          -0.05806036433954    0.02908738454022    2.90678086267945
H          -0.66578058554442   -0.79810139613639    1.75084679343960
O          -2.38604616319743    1.56666674447816    1.25278381423848
H          -1.99545833152095    0.94908312121489    1.91193448184136
H          -1.66087492798440    2.13810696007919    0.97583712607241
H          -2.42141083387872    0.63059289331050    0.04344481156128
