    19
        -40.92179447
S           0.30870842889740    0.67594296243030   -0.61261238714719
O           0.55053128475001    0.66050783818144    0.92237189534209
O          -0.41093106132814   -0.53196700009460   -0.96439673081231
O          -0.33728951783191    1.88519029013638   -0.99625075689377
O           1.72738913129582    0.60785433401899   -1.16712775346133
H           2.24063540395237   -0.09650479517972   -0.62062404988374
O           2.74913233469821   -1.13584116896015    0.35199124760141
H           2.53120954929185   -0.76171838807419    1.21089972567106
H           2.11826886170532   -1.88637932126011    0.21515508820535
O          -2.81333551002611    0.53287002182936   -0.31967452742875
H          -2.91240717878983    1.17401523470909   -1.02837422445474
H          -2.06991465634044   -0.03318748447760   -0.58817488058076
O           0.75246673451737   -2.78264856837731   -0.15014239748607
H           0.19868236414210   -2.02706869977339   -0.43517730572383
H           0.76555391444076   -3.40088789137031   -0.88323431297297
O          -1.55693113288955    1.89832302547137    1.58799429491197
H          -1.40879905736824    2.71470834897316    1.10055924660415
H          -2.18423906474130    1.37275228881937    1.03424256930662
H          -0.24873083835834    1.13403896299194    1.34257524919023
