    19
        -40.91386728
S          -0.61604413012765    1.11287418882395   -0.80897525174015
O          -1.87872302259651    0.96242370601045   -1.45507801932150
O          -0.58167656637214    1.11906274334031    0.61750879044112
O           0.37370489426847    0.09746295549616   -1.36808131231075
O           0.00081153948449    2.49770905479270   -1.28051148991595
H          -0.37580876070446    2.70139318430656   -2.13414139887420
O           0.08970395212131   -2.36058748382023    0.32133937058400
H          -0.84956530016149   -2.09662744631848    0.31130745227257
H           0.42819892435910   -2.14961972735674   -0.55195079640817
O          -2.35147333973839   -1.13968198010022    0.21269581889882
H          -2.46489181475860   -0.64085853394806    1.02502459416507
H          -2.38697722271981   -0.49283994624416   -0.50590934731966
O           1.15775117612418   -0.54432887583829    1.97999428077246
H           0.42736015182351    0.08248157777022    1.87564658027730
H           0.84395764694767   -1.36892972181180    1.54592460088232
O           2.40038709974090    0.50155763508358    0.00544013897707
H           1.28712989793858    0.22791313484894   -0.84034189304106
H           2.42155658118368    1.44318393201167    0.19361961688896
H           2.07459830321147    0.04741160297822    0.85648826476671
