    19
        -40.92217282
S           0.67500582353677    1.16907211216782    0.28977624740546
O           0.57278366931064    1.98142739540822    1.46800269295811
O           1.15081977635747   -0.18727086437412    0.49696394937213
O          -0.54656159818244    1.17706752923745   -0.52529477753776
O           1.78965556310259    1.84276973751969   -0.63926231900277
H           1.82432678634080    2.75115056380464   -0.35424663120288
O          -0.84835173410777   -1.89473351211535    1.02823676588930
H          -1.30880858850807   -1.19057259417373    1.53609015461503
H           0.08376339636306   -1.61627820027270    1.06403440114674
O           1.38327768575885   -1.15200963605927   -1.92139072405064
H           1.51363156509418   -0.84163651682983   -0.99583479105439
H           1.72688237863341   -0.45627141355223   -2.48523384807469
O          -1.59042002620241    0.47628290564485    2.01208662580580
H          -0.79675979834377    1.04018544038005    2.01327219296153
H          -2.23959608630898    0.94972582744976    1.48640018330516
O          -1.10629693941574   -1.09588064150407   -1.32402084895771
H          -0.98325412516287   -0.08323361070251   -1.05027871144892
H          -0.20063973281181   -1.30014227207305   -1.73389923298342
H          -1.09945801531440   -1.56965226991606   -0.36540132916414
