    19
        -40.92246926
S          -0.53242133792098   -0.13849805346135    0.91849200191315
O           0.72119853556067    0.41575137797835    1.33171341590039
O          -0.53565664848281   -1.56923670765699    0.72053058386733
O          -1.61990037786767    0.24024666700713    1.94738336360999
O          -1.02784775446462    0.54042755838101   -0.35573410024137
H          -0.24129909308094    0.63068106644521   -1.11886564863297
O           1.73524267264031   -1.52005747041641   -0.73888360819483
H           2.38717554086182   -1.24255112451580   -0.09042206422858
H           0.94144354435485   -1.76295053010049   -0.23211715780821
O           2.17904194153810    2.11880209763118   -0.15242525017437
H           1.76640362651471    1.54083513617990    0.51720753062837
H           1.97930173952951    3.02022446186355    0.10548021353833
O           0.85689528950226    0.67207135134474   -1.93746222833039
H           1.26720707625447   -0.20369154421827   -1.73536077509269
H           1.43383281383160    1.33139998142285   -1.48382983046540
O          -3.20123950383415   -1.25790193354803    0.52743616197751
H          -3.29334425039300   -0.80472109583816   -0.31538045364638
H          -2.38656955795910   -1.78334036095706    0.47030950430285
H          -2.42946426668276   -0.22749085747111    1.62192833107233
