    19
        -40.92179446
S           0.06696495452656    0.62863097217965    0.72616544756956
O          -0.41583582167720   -0.84428752475373    0.83820125892097
O           0.45218299823663    0.86972032797126   -0.65014590557138
O          -0.93040795097187    1.51228520737078    1.22743555997130
O           1.30621840270214    0.63430617214777    1.61443627192854
H           1.84217840330680   -0.21833590699486    1.40450625192250
O           2.23786018973602   -0.85379893832494   -1.61056152383553
H           2.92974395772311   -0.35940501436741   -2.05412421632968
H           1.53262047042401   -0.20974650736089   -1.39440336018432
O           2.39337054219330   -1.54292953001067    0.92920744902798
H           2.47236581424710   -1.40583978884904   -0.04806969496076
H           1.65526178729736   -2.14738517713901    1.05162271961277
O          -2.08970615130518    1.37712491154058   -1.42752968881478
H          -1.13235507666036    1.21984001287764   -1.36512732494141
H          -2.23691014764834    2.21966198970606   -0.98992252724716
O          -2.86973172791813   -0.40965616340899    0.38419038722513
H          -1.42064845732517   -0.83015030949732    0.66558342397293
H          -3.04891179071335    0.19679773571537    1.10957338719660
H          -2.74426039617088    0.16316751120223   -0.41103790544918
