    19
        -40.92246927
S           0.47829022808302    0.47879075412969    0.82887268327949
O           1.70964271972340   -0.22017334057473    0.54355639505319
O          -0.54496729670708   -0.31498950642228    1.43922113426202
O           0.77657904826541    1.70036776733103    1.72524850351430
O          -0.03517899048925    1.12498417559819   -0.45534303371357
H          -0.57078368174331    0.41402353735107   -1.10027485269877
O           0.43156802824424   -2.30988362734330   -0.59233030527633
H           1.07623788805908   -1.68835594986742   -0.21300541110599
H          -0.04074626336408   -2.68760481077130    0.15378440696404
O          -2.89419289833400   -0.89951061019933    0.26930047458324
H          -2.11602007016893   -0.75795836892968    0.84127313723890
H          -3.55900421513609   -0.26996864467877    0.55330357348921
O          -1.21695707036611   -0.59818470291195   -1.76161236491687
H          -2.01157757219891   -0.74573290192840   -1.19588947637110
H          -0.61886749585186   -1.35828926056396   -1.56000262390325
O           2.66286724528720    2.24034885832217    0.01890823300636
H           2.21133733134601    2.46543671406171   -0.79940584317320
H           1.52753173152776    2.15461461980142    1.26712996890857
H           2.73424131380779    1.27208530759569    0.03726541085464
