    19
        -40.90906093
S          -1.45887888664637    0.44778293282268    0.70550659758037
O          -1.42767137012529   -0.49754850468254   -0.38321974899494
O          -1.45848355260878   -0.29650300117854    2.03945462529034
O          -0.48291005176720    1.47595228677677    0.68807325669089
O          -2.88829505218384    1.10314712064162    0.69749989412281
H          -3.53464492319060    0.40155854454823    0.63762509310089
O           1.15883309391332   -1.30640900731599    0.34054027236909
H           1.69235842145387   -0.75877325837173   -0.27465068372594
H           0.25226214249371   -1.25551901061261    0.01326324091284
O          -0.17807355256033    0.25085521750201   -2.68081043355758
H          -0.67863153081731    0.06856868036770   -1.86661774178401
H          -0.38730120186199   -0.46273598340077   -3.28726575753396
O           2.29327595061657    0.27512464462858   -1.52247319136181
H           2.91951476857016    0.00299779312442   -2.19524068026193
H           1.44805796488583    0.45333156107783   -1.97900861800983
O           0.94423896430047    0.00282315050569    2.57928676113422
H          -0.47590171127002   -0.21585379342992    2.42067414492812
H           1.22420048884869   -0.59030440771240    1.82715636167610
H           1.03805004800470    0.90150505473175    2.24020660749089
