    19
        -40.91671912
S           0.85962542573296    0.91250461905468   -0.31848357054080
O          -0.08867555476313    0.73142914785244    0.88379278684464
O           2.20055205668563    0.92631513013302    0.16824942444573
O           0.52467062045663   -0.04740956548360   -1.32985150790946
O           0.48115977622640    2.31788990663146   -0.87057295239522
H           0.80250010181129    2.95370662208072   -0.18668183842340
O           0.59910105720371   -2.66841326192029   -0.71293326256360
H           0.86710148320043   -3.16036829404852   -1.49146396092770
H           0.66670340489138   -1.72436328273821   -0.94919811180486
O          -1.88976333119219   -2.64648322998298    0.29178360469739
H          -0.98913863384042   -2.77626021227667   -0.07809190519754
H          -1.82019527922206   -2.81946420280143    1.23210830570684
O           1.56812824783051    3.26736742889387    1.30497052052751
H           1.02804264984705    3.02834243412581    2.06277168450994
H           2.15162642010714    2.50881144188599    1.13402000270406
O          -2.11087179805980   -0.09495655176345   -0.34066384362883
H          -2.17773299147823   -1.05528453120226   -0.09251665140973
H          -1.00037380198851    0.42753386004918    0.49207522892760
H          -1.67245982344669   -0.08089745848888   -1.19931394356624
