    19
        -40.91907735
S           0.96357741081841    1.17559471278876    0.68599456890063
O           1.75510452429306    1.85489059958076   -0.31290305423378
O          -0.45748817001134    1.41651378448365    0.58611139452850
O           1.24930851169373   -0.27462906416323    0.71372454792917
O           1.42822440659281    1.71763307327612    2.09893597868517
H           2.36278632148095    1.88390688324034    2.00748494301346
O          -1.22153356191313   -0.82514662033047    1.75082689734983
H          -1.21649253052040    0.10739010706161    1.45788202799656
H          -0.28027079288948   -1.02998786258566    1.82565055879708
O           0.38411485945031   -1.16253189847285   -1.43597469419299
H           0.84732588748484   -0.87462210199595   -0.53289869342258
H          -0.53239019466597   -1.56116873033743   -1.14753461814830
O          -1.80648042549882   -2.00379770352882   -0.49906302721162
H          -1.72507945773796   -1.56945067049609    0.39966485165532
H          -1.90667124598327   -2.94481492178658   -0.34432350944563
O          -0.03017451815843    1.23041214433354   -2.12900772356396
H           0.18830847786766   -0.24500216361143   -1.88596389825424
H          -0.76150228296808    1.49294413296632   -1.55493363352659
H           0.75933280118029    1.61186629959412   -1.68367290690452
