    19
        -40.92246920
S          -0.19637486497011    0.39253253437889   -0.97666550977520
O          -0.86892448617427   -0.87133538111229   -0.97671297915345
O           1.21089722494963    0.33893679515224   -1.29754645782766
O          -0.91055975031713    1.34892902712924   -1.95638844990609
O          -0.37349472821868    1.09698446392200    0.36585888700519
H          -0.18856688346845    0.42952048319139    1.22010514512469
O           0.05979412703506   -0.54127355966204    2.15455980300435
H           0.80302508171874   -1.02617888351698    1.71997368655567
H          -0.72133523664021   -1.13557312936909    2.05421472676988
O           1.67278043178302   -1.70399688445483    0.40590766430329
H           1.72400240490144   -1.00284116994938   -0.26605548828421
H           1.17671928050235   -2.42030480398055    0.00187085499770
O          -1.93571221800449   -2.00993556264545    1.21272550477230
H          -2.86913053696162   -1.79727293230734    1.26231852787354
H          -1.63347364884011   -1.72714901484817    0.32874905562177
O           1.00604932194860    3.01897227069584   -1.40859150297214
H           1.51169953030988    2.18997697182862   -1.41862315736154
H          -0.35219943367536    2.16624260342566   -1.94140388842633
H           0.88480438413565    3.25376618212139   -0.48429645232729
