    19
        -40.92174065
S          -0.41971369076010   -0.57768749105439   -0.54268458545680
O          -0.73999656350425   -1.55561251287102   -1.69378729817146
O          -1.59879737205779    0.21672626251902   -0.26974875911966
O           0.06757447699658   -1.32576863355697    0.57877001552018
O           0.67838641415891    0.29738855691705   -1.11878758512140
H           1.19728622423928    0.87721847769303   -0.35944977571871
O          -0.53609196498209    1.18156972550411    2.02455323847979
H          -1.10279248997042    0.96000101934155    1.26724231576151
H          -0.43074999004931    0.36569012564936    2.52086898218484
O           2.50093885476203   -0.90776741160100    1.65107836346706
H           3.13870041238443   -1.47641998015245    1.21654809156691
H           1.61910215176022   -1.20570936520490    1.35750911693591
O           1.77403419585199    1.48615145904247    0.74982469328370
H           0.98258236130874    1.61948531575925    1.32299156773527
H           2.26101055337764    0.73490855444030    1.16096593973453
O          -2.42028053283178    0.09597703145930   -2.78345390740658
H          -3.33062297762003   -0.19734450936175   -2.87247834758010
H          -2.32653150777334    0.46129831762286   -1.88418902543589
H          -1.31403857529934   -1.05010492213900   -2.32577303066040
