    19
        -40.92174076
S           0.70104452096685    0.41984685824902   -0.36854203125318
O           1.10580560324146   -0.90028344696200   -0.80353837623828
O           1.86419405099734    1.40197667145427   -0.62673865334191
O          -0.47974596831040    0.92213673263241   -1.00761777850025
O           0.54444218734484    0.44771530047648    1.14076518431773
H          -0.39270092722425    0.00903256124962    1.47541943842128
O          -1.65288349043426   -0.53181059067220    1.70365203116625
H          -2.24243510867086    0.19288023410090    1.39103129076677
H          -1.69411875155759   -1.21630601146649    0.99483087703873
O          -2.73307767294647    1.48706429389348    0.35120407334918
H          -1.99077109900186    1.37074656923353   -0.27172906620836
H          -2.70801284483026    2.40197149080930    0.63631640260251
O          -1.42072118811664   -1.84817137304578   -0.59157399848325
H          -0.46992652761431   -1.72317188438897   -0.74677000879047
H          -1.86683302403608   -1.29045080319807   -1.23431218326044
O           3.65424459549829   -0.44049299820342   -0.25266833615466
H           2.84441762915493   -0.96561018982556   -0.39119272291290
H           4.24385530054547   -0.63745210358899   -0.98502551503449
H           2.69322272499542    0.90037868925227   -0.41351063748496
