    19
        -40.92174067
S           0.21204926222228   -0.87103015940699    0.01745173752729
O           0.98980051466882   -2.19884569245590    0.14489095242511
O          -0.74502400278678   -0.99796450634074   -1.06132081650850
O          -0.36358878286233   -0.54740310747600    1.28974401524660
O           1.28749258285632    0.13351207593891   -0.35328876029537
H           0.96091536477202    1.16415752053321   -0.23461816609231
O          -1.99650954495371    1.29356054425281   -0.34904064220243
H          -1.71607410400089    0.46145069623958   -0.76461524102548
H          -2.29648517182694    1.05829154884700    0.53286193711387
O           0.38688188157406    2.40162510142337    0.03211624902621
H          -0.55001583926951    2.23271859660316   -0.22573728637920
H           0.38046527698650    2.41244757550340    1.01726183656977
O           0.20416397536321    1.73419086644009    2.59950348598860
H          -0.07134436006065    0.85545434077315    2.27612493197549
H           0.95806200530842    1.58876424887519    3.17342306059214
O           0.78877965745986   -2.69382234831496   -2.39542795071862
H           1.13229334589171   -2.51848569249410   -0.78354051861364
H           0.33175873027308   -3.49895715095359   -2.65151164236880
H           0.10637920838144   -2.00966444799283   -2.26427717225983
