    19
        -40.91483140
S           0.34357236219973   -0.73420589994723    1.24237796171993
O           1.70881279665930   -1.36024110789513    0.99524758112762
O           0.45178652542276    0.70126443561360    1.27327058313379
O          -0.63555703710846   -1.27947048647149    0.36429992557405
O           0.01650656451940   -1.20574288936594    2.70124409601136
H           0.60209822694213   -0.74203513068886    3.29683702650311
O          -1.77718441402728    0.44191918928071   -1.51027712909932
H          -1.69081862923538   -0.34345921769773   -0.95415907686169
H          -2.01934634174013    1.15567260498344   -0.89410930461729
O          -1.72192297252715    2.22824398614331    0.57700514831290
H          -1.41237897991636    3.12326181157400    0.42429217269874
H          -0.96731874528820    1.73089822011392    0.93261870718633
O           0.85646568061318    0.76706558513126   -1.48992581421899
H          -0.11016245049421    0.72668005868605   -1.69919267451202
H           0.90391507263532    1.00717845351349   -0.55673574201733
O           1.57034553460990   -1.71551742151752   -1.45171820859653
H           0.72506259020972   -2.16330971914716   -1.56001115719140
H           1.39443692365292   -0.74675314105110   -1.65227067507711
H           1.76168729326818   -1.59144935195847   -0.03879342003796
