    19
        -40.92123230
S          -0.61076146114218    0.82895991191324   -0.63863776715677
O           0.65584545594491    0.67505493858098   -1.32577103061649
O          -1.56086266977455   -0.20839096773117   -0.87626665265908
O          -0.32121591662531    0.98503145413370    0.85429366369341
O          -1.22626492394729    2.19381151169968   -1.01081034786961
H          -0.49386033946011    2.83946614851321   -0.85492876808384
O          -1.97122561936139   -2.31085352445834    0.75465574448758
H          -2.02318243629536   -1.55725286022445    0.13769154391287
H          -1.84666996785523   -3.09078034642110    0.20962357515965
O           1.57673984913987   -1.70651670338986   -0.52288687185652
H           1.25952338697610   -0.89138818596647   -0.95820438294790
H           2.51817859689919   -1.76187964486834   -0.69819406702220
O           1.11287465580684    3.16956795301197   -0.41472160993517
H           1.36704377723133    2.33897960068128   -0.84850749088054
H           1.16892990715733    3.01269620674202    0.53235323993338
O           0.23858808682098   -1.25127209200575    1.73607148374288
H           0.84454194305838   -1.55654514813100    1.02395192663615
H          -0.07861533827560    0.02896711185997    1.32259551674353
H          -0.60960697633369   -1.73765537388447    1.57769230480736
