    19
        -40.91836425
S          -0.28121030557149   -0.05679727269677   -1.14165539119640
O           0.09945025318594   -1.49892719941094   -0.75071310454398
O          -1.61748110215630    0.25752157252186   -0.76520298738177
O           0.73741629578913    0.82650425444428   -0.61815698327497
O          -0.16997961979905   -0.10759731498563   -2.67807254471746
H           0.79733635828560   -0.22365312829288   -2.85687493345011
O           2.39939732452678   -0.33440113075020   -2.36478098427169
H           2.58395977444718   -1.19834969765403   -1.98741189797886
H           2.17809688088482    0.25686880859595   -1.62518774665831
O          -2.28125031843004    1.67905104777697    1.46801265988167
H          -2.22556093888761    1.11960571435062    0.67448181058278
H          -2.49622232206923    2.56152048759847    1.16091016427324
O           0.20735104171138    0.81865452107203    2.06844240594059
H          -0.68978434736795    1.20869682037831    2.08872169020433
H           0.54372213420796    1.00602442920515    1.17738788994275
O          -0.18255961849410   -1.71308607193311    1.73661863910605
H          -0.06415257094869   -1.66022542833203    0.25826664803749
H           0.53237851438133   -2.19485838279862    2.15910297702057
H          -0.07090743371663   -0.74655201912709    1.99611168853121
