    19
        -40.91892620
S          -1.02290951855655    1.00573786124002    0.04000768491132
O          -1.33255426488737   -0.38833526109323    0.40949091183582
O          -0.76146986657692    1.81417829851561    1.21128665876032
O           0.00597787164126    1.05651531510244   -0.96893023080585
O          -2.34302131677887    1.56545038028991   -0.62646687116865
H          -2.92161311077270    1.75141449861047    0.10728250166400
O          -0.78747646418297   -1.18699408831971   -2.24424091484115
H          -1.37923865263026   -1.52158419802175   -1.56406707281870
H          -0.67403972789252   -0.24546350870214   -2.03115592393126
O           1.46010306690568    0.81780965595611    2.11671363637384
H           1.45655199053919    0.91380755876240    3.07160296770958
H           0.67060861165382    1.31636902229758    1.78320404452765
O           1.72691562042061   -1.05538539556230   -1.35006820595443
H           0.95725287599583   -1.38234513255439   -1.86879996060967
H           1.61428447659998   -0.09179302332018   -1.37102817035713
O           0.87081419385794   -1.37585509466978    0.97811260052648
H           1.33387595066591   -1.33731568528445    0.01859272510745
H           1.24319154247815   -0.58291430524005    1.50781702427122
H          -0.11725327848894   -1.07329690808964    0.78064657478729
