    19
        -40.92135406
S          -0.03715015376638    1.02562408476247    1.17662929807308
O          -1.47070816945154    0.87901468511712    1.05199836458186
O           0.56831610207630   -0.09503557653306    1.89714663553790
O           0.62772823988918    1.26328609540061   -0.09490567933369
O           0.22802832830896    2.31125428630547    2.05245248488378
H          -0.30179665241856    2.15239118708751    2.82753740587706
O          -0.97010730997348    0.68902931729164   -2.18181638004603
H          -0.34265981897257    1.01189109340427   -1.50587489733204
H          -1.63304707864390    1.37450865533064   -2.28094724617625
O           0.44539462329136   -2.05576870531030    0.36686286889592
H           1.15039344885286   -1.72078493795338   -0.28637348097662
H           0.51120478557261   -1.35580381747745    1.13144461633422
O           2.13231897068150   -0.71523238206584   -1.00117512112973
H           1.66138224167092    0.11534835275460   -0.76255909057857
H           3.02105652341373   -0.63622549504915   -0.64970276747275
O          -1.71218691697655   -1.21386677177855   -0.50475097892428
H          -1.83927985337099   -0.50090328145390    0.16509239364710
H          -1.51096598822714   -0.71024923353240   -1.32949338223045
H          -0.52792130179807   -1.81847756603562   -0.07156506374660
