    19
        -40.92174066
S           0.30150998775457    0.63418148687367   -0.55756795729915
O           0.54552050702550    1.50652688685757   -1.80790521411483
O           1.55278137654992    0.48948490748842    0.15606854502800
O          -0.75999978552978    1.21401989242365    0.21174168232813
O          -0.12703474792125   -0.70138276857731   -1.13715015745472
H          -0.58011788595582   -1.35623139787775   -0.39656138318879
O           0.30980533491169   -0.56468850203735    2.31668786561779
H           0.94523096929307   -0.20603077263619    1.67533164526838
H          -0.25623423672107    0.17101571175457    2.56456961253687
O          -1.17877388016001   -2.02047878302172    0.66801400672651
H          -2.02348233084445   -1.52302936097492    0.76596478683635
H          -0.61652283580965   -1.71590652645058    1.41893727730209
O          -3.03041538467097   -0.11531265876381    0.77915003265310
H          -3.67382263556019    0.05136517085820    0.08830630317457
H          -2.29447510428054    0.50775145678000    0.62792752965262
O           2.98761351721061    0.66373754540374   -2.06185250467261
H           2.77499290048632    0.40513028158098   -1.14598990455626
H           1.43630467268233    1.23967730182442   -2.15398332994322
H           3.68711955153241    1.32017012848432   -2.01168883588676
