    19
        -40.90639161
S          -0.50136605855360   -0.89252112139510    0.50154166963034
O          -0.69871496356666   -2.30197326147607    0.44215133533136
O           0.79447905709220   -0.40719011752962    0.10056692009066
O          -1.55693019814295   -0.15422181141946   -0.36101443811351
O          -0.84054080253802   -0.38750932036405    1.92147793710359
H          -0.54403915976750    0.55039308351613    1.96385534199291
O           2.19491896578485    3.88561202227235    2.11068294313603
H           2.67584502035269    3.63839776563637    2.90185994310964
H           1.55489699091477    3.18091949387659    1.94568357049460
O           0.29435228484826    1.89881677463202    1.28308564000032
H          -0.19961401864865    2.45139552407491    0.67083544505485
H           0.77575021157202    1.23752119247016    0.74821859180746
O          -0.57591596556835   -3.17863590919616   -2.10909692968880
H          -0.55136856388025   -3.04578674893966   -1.14363089331953
H          -1.35131571907996   -3.71376265299488   -2.29040649528764
O          -0.35198127685450   -0.57121763586036   -2.54567315627444
H           0.53756393795799   -0.40724584752483   -2.21447806920296
H          -0.43527689733452   -1.55226672318067   -2.60309007623816
H          -1.22074285450590   -0.23072469664119   -1.32256926963335
