    19
        -40.92174073
S           0.52261707051221    0.64855380858120   -0.33104026114906
O           0.42524490328109   -0.08081153635659   -1.57777904283256
O           1.60465604094395    1.73968519241318   -0.48176431230325
O          -0.69930011003666    1.26406313056717    0.09655802680653
O           1.07753360774691   -0.25034379628917    0.75856211789986
H           0.33092418087421   -0.92679829770680    1.16800133221386
O          -1.85736206716271   -1.30532120815249   -0.79352425925262
H          -1.07668946822010   -0.98246711144448   -1.27316099003000
H          -2.43139623316416   -0.54275293518624   -0.68351568114190
O          -0.76493844839467   -1.66486801491018    1.60047367650560
H          -1.25350416044918   -1.78909569678880    0.75276008237046
H          -1.28188024228496   -0.98661804184295    2.09380626475785
O          -1.93429897839621    0.58874793778499    2.39065351273826
H          -1.59399719874708    0.97124044121097    1.55964787438852
H          -1.60704485347841    1.14464199726700    3.09974781916881
O           2.97982649606256    0.30775626289146   -2.15442779185219
H           2.32684721354139    1.33074418674611   -1.02541227005914
H           2.11233069902057   -0.13737463962195   -2.16711514296505
H           3.12043155835332    0.67101833083920   -3.03247094527405
