    19
        -40.92246924
S          -0.58342481568103    0.19255112380849   -0.87708784722251
O          -1.08499784949092   -0.14160864106061    0.52535262553576
O          -0.12809790480663    1.56314229758010   -0.89921551471420
O           0.37670858129295   -0.77509584949097   -1.31439911525208
O          -1.86237271399147    0.06234441443392   -1.73284186541884
H          -2.44164434602286    0.79691257026332   -1.40898293850713
O           2.19650146401026    0.96750167217252    0.33756210530626
H           1.45223642490565    1.38861966823420   -0.12577250948281
H           2.64290949319766    0.42610503519367   -0.31822719084239
O          -2.71216185860990    2.13709066370086   -0.41563755702171
H          -2.82162780735256    1.83500568811859    0.49041701227430
H          -1.77729296224711    2.38055195674004   -0.51405512166322
O           1.43406073669337   -2.66917454807330    0.27368903937722
H           1.13001137602905   -2.07204979918095   -0.43604886803831
H           0.93685386777922   -3.48300680831486    0.17652178327124
O           0.86693306290322   -0.67858061309200    1.92972093056596
H          -0.26698849164265   -0.38672631812387    1.21845041879463
H           1.15094736923123   -1.53525602396151    1.53113320816594
H           1.49144635380343   -0.00832649896641    1.55942141485625
