    19
        -40.92052672
S          -0.31624946120870    0.77492728671111   -0.06831172885266
O           1.06207005542586    0.51507739145048    0.26530184044050
O          -1.09901062193137   -0.41838176703240   -0.27339677503569
O          -0.98300864757047    1.63373546167750    1.01008229707115
O          -0.37242377003164    1.67912197590970   -1.30303934061712
H           0.42963038938571    1.42472803729135   -1.89300861990907
O           1.63389156285520    0.69239618869371   -2.47586870844378
H           2.14408050629076    0.59175347587165   -1.66359644595382
H           1.22083535269531   -0.18681799516709   -2.63574055630884
O           0.80682151980275   -0.77742614107568    2.61078942540786
H           1.38759631819271   -0.35384502470312    3.24624319081399
H           1.02811990856682   -0.39841428468003    1.73923340293721
O           0.12730062407712   -1.50420915370347   -2.40710767434699
H          -0.54404638220475   -1.70707695518395   -3.06185044807903
H          -0.34820619759467   -1.25985438784206   -1.59068909624701
O          -1.80532469325120   -0.27960546331560    2.43714543414529
H          -1.41738358859410    0.98508970870623    1.67861809188098
H          -2.04699859580240   -0.82790918508480    1.68136690310406
H          -0.90769428902194   -0.58328915850549    2.70382880801549
