    19
        -40.92037955
S           0.36589490279949   -0.71868597082037    0.72170186026511
O           0.98879792291585    0.58987025310376    0.83364905243025
O          -1.14330573333614   -0.55553809100356    0.75223072445993
O           0.78392000916668   -1.47800311859488   -0.41317176043520
O           0.67018958952425   -1.51235983968516    2.00923616702254
H           0.60017707907072   -0.86019960645956    2.75099167744866
O           0.29371740803144    1.89432911660640   -1.40363295504540
H           0.68132062494932    1.45204649279953   -0.62374988530078
H           0.25603270141505    2.83007119563558   -1.19575375349548
O          -0.55608584199413   -1.62924954030633   -2.74276805308749
H           0.06273460110637   -1.32995658474825   -3.41228611053411
H          -0.03008377942063   -1.76831941476018   -1.93331168246846
O           0.73099519066487    0.64306664767154    3.46428205980199
H           1.55970454092172    0.80416328928104    3.92222386826048
H           0.83946358347533    0.97437256634819    2.55310422333794
O          -1.84394850101868    0.29833097913517   -1.46127696922694
H          -1.56140670935425   -0.44218164758861   -2.05220247911730
H          -1.53362264943057   -0.19108129625749   -0.18820637114434
H          -1.16449494947434    0.99932457963813   -1.58105958317174
