    19
        -40.92113586
S          -0.80748905456560   -0.87296855493545   -0.10558057131662
O           0.00807516506059   -0.61529715088325    1.06602149231963
O          -0.37943363332149    0.14404373813753   -1.20274530105314
O          -0.73553981840894   -2.19833718847717   -0.61274464505459
O          -2.24843902899952   -0.46124758773246    0.18089928928679
H          -2.27552513325565    0.56365784456460    0.21576932895496
O          -2.01719677943612    2.06148520469295    0.17889520022810
H          -1.57641869641087    2.18296360841117   -0.66727941083883
H          -1.32010508417705    2.17834058972679    0.87062176833898
O           2.50025647768497   -1.09480841564833    0.14125463500773
H           1.65165617117060   -1.02483394908591    0.61457616383257
H           3.02896670883699   -0.34198939248525    0.41382691420932
O          -0.06037676522225    1.88256655625800    1.94952801118665
H           0.06421855983015    0.94555068796847    1.68868209319766
H          -0.28306947884646    1.87571460700080    2.88252589273277
O           1.34006981767593   -1.37437163268914   -2.25112347679581
H           1.98145325073243   -1.34432813882251   -1.50779224942171
H           0.80349329391508   -2.16182788371450   -2.09330819390550
H           0.32540401766113   -0.34431295123676   -1.76202695106495
