    19
        -40.92120162
S          -0.70059404090718    0.30619031843717   -0.58624345687834
O           0.45264792578910   -0.68879448691785   -0.89075843545752
O          -0.60724361336486    0.65598361356779    0.81743037373157
O          -0.64768283542104    1.40341975754623   -1.49136090159010
O          -1.95964043649212   -0.51922406071292   -0.82433378711472
H          -1.99895370568592   -1.32914593997791   -0.19796895860674
O          -1.98884662698975   -2.43896445443863    0.83923049919087
H          -1.12230524586462   -2.29518624253885    1.30345162521948
H          -2.67716473929553   -2.28453397695631    1.49073237706327
O           1.39304536256300    2.42080286019602    0.37492817383603
H           0.94875826856224    3.21434741113798    0.06697978583911
H           0.68906806933817    1.84501963608871    0.71980061274143
O           0.28114958168569   -1.62889531824749    1.87877938024518
H           1.00268422206181   -1.83861709657052    1.28031826045373
H           0.02789008554382   -0.70695982131710    1.67923103887549
O           2.10610122845526    1.00939014897574   -1.77841743169627
H           1.20915409921423   -0.13738493852571   -1.29669933258052
H           1.51605570459073    1.43350970026675   -2.41076283971209
H           2.07587670622044    1.57904287999483   -0.97433698354644
