    19
        -40.92267752
S          -0.26264432403213    0.64493044976603   -0.80566917498562
O          -0.95298071415842   -0.46656058720960   -1.44312496985275
O          -0.71619057116062    0.77575292124271    0.60145367992510
O           1.17638343180714    0.52513059670960   -0.86647224683922
O          -0.66887280478228    1.96607658608604   -1.51594673407097
H          -1.65032400296557    1.95307990266441   -1.46113942662515
O           2.66934926313051    0.23701996944032    1.25320964476002
H           2.86078796721659    1.10085814278392    1.62358498141116
H           2.25881198734266    0.39838881286541    0.36786649182375
O          -3.07874699483734    1.10885931643719   -0.93433584229627
H          -2.67362133281089    0.28746313217780   -1.25549485783373
H          -2.93463963772041    1.11179310597501    0.01757500001482
O           0.47176037943284   -2.32861721467777   -0.27179228411444
H           1.32351513835255   -2.24346455801886   -0.70905465617604
H          -0.14749716843472   -1.76558370972165   -0.79494814031551
O           0.50374358992782   -0.94466414540530    1.85794856005276
H           1.44193334568445   -0.53432665343820    1.80696675006008
H          -0.11127306931425   -0.16662318529361    1.41427370371700
H           0.49050550732433   -1.65951287237340    1.11509950134194
