    19
        -40.91287582
S           0.80201991351482    1.51783737829691   -0.50797850751651
O           1.12579542335544    0.07381214545660   -0.89123508720394
O          -0.61456892199093    1.64511157432804   -0.29933250385089
O           1.67853326070225    1.94686304489376    0.52165538711434
O           1.14308042666590    2.33633936796173   -1.81235537645045
H           0.34392419260527    2.44917891647688   -2.32399166029289
O          -1.00207499142992   -0.27324151298959    1.69325469659879
H          -0.07383125900125   -0.37376937771643    1.97773874855396
H          -1.03211549749275    0.53105334693810    1.15870658635919
O           1.71025878656271   -0.36910804821710    1.93932971838242
H           1.86533904143191    0.54489282797655    1.65493999842172
H           2.11726735015493   -0.92279284422253    1.26921585395541
O          -1.67555677146493   -2.29754596723072    0.12730838271313
H          -1.11625464343003   -3.03710103450609    0.36866811474697
H          -1.53497583028213   -1.60291473756059    0.81771920257470
O          -1.08519560259964   -0.62330463407761   -1.77232673150969
H           0.24886775756979   -0.31839722393043   -1.33082182509713
H          -1.36146267987930   -1.37812089975150   -1.17700136530351
H          -1.53904995498782    0.15120767789788   -1.41349362224234
