    19
        -40.91335395
S          -1.81962714981800   -0.51056944724669    0.19168603589574
O          -1.09690923571145   -1.53915990686566    0.87709443198915
O          -1.57382487054692    0.83279047082047    0.59296048140977
O          -1.64031935310453   -0.67209778395591   -1.32936792821265
O          -3.34995911483194   -0.80780563189075    0.33941174712168
H          -3.44221351606911   -1.75549036692215    0.27133607810903
O           0.68638194202433    2.07146310085462   -0.30437450643265
H           1.30162973346302    1.83075529334980    0.42840633821198
H          -0.20070015100233    1.92992854268260    0.06220240773521
O           2.03783468276727    0.95723431561245    1.70294526191395
H           2.03379353973847    0.05038808087486    1.32284013619034
H           1.50926408317829    0.91303732867636    2.50131885256930
O           1.60821184178922   -1.39813423159945    0.48205925718075
H           1.57651258733075   -1.14399959085904   -0.44727129443359
H           0.69226422305843   -1.59600767999737    0.73577471238704
O           0.72400276788564    0.04053523202417   -1.83387898427995
H          -0.68037238805654   -0.41193583708513   -1.58484408368140
H           0.84964122996769    0.31677025949120   -2.74433845358731
H           0.78438913794870    0.89229785207765   -1.26396050011968
