    19
        -40.92079116
S          -1.15731422884503   -0.92474626259886    0.11375321952878
O          -0.67287462321882   -2.26125035858198    0.34445922112786
O          -0.96967894939004   -0.05099857785062    1.27355351566927
O          -0.64350749742451   -0.30295664811977   -1.09887155136877
O          -2.72142417069466   -1.02430070596312   -0.10680138124413
H          -3.01620108726105   -1.54499255094113    0.63378566932348
O          -0.96238008598628    2.29557532464887   -1.25382760991149
H          -1.01982020703735    1.31206772918023   -1.30332287563741
H          -0.60720237426188    2.59147442870805   -2.09442428679395
O           1.85112336787850   -1.83049023618401    0.99895903002609
H           2.33309482323819   -2.64972227455162    0.87109331291560
H           0.90503120514185   -2.04319926608718    0.84555718195707
O           1.89382503247951    0.30241541890709   -0.54912675583624
H           2.11133469813242   -0.44545049060341    0.05545497782151
H           1.08781175927694   -0.00037739113899   -1.01438681410842
O           0.50874491792525    1.87669000078990    0.79821131969323
H          -0.12417913318030    1.10969204448319    1.14707418129892
H           1.25080118794981    1.30690614502987    0.28599596152446
H          -0.04718464413472    2.28366366099774    0.05286368409864
