    19
        -40.91930408
S           0.68698236277995    0.16164507731235   -0.90317273422730
O           0.41489348754020   -1.33599417726156   -1.09345171855874
O          -0.56544882892403    0.83272195914437   -0.62282148165889
O           1.71943691992632    0.37927352496639    0.05527024592334
O           1.17603531751946    0.59239715081346   -2.29927321047291
H           0.36072063870498    0.68151039458426   -2.85874906972098
O           1.34041049917580    0.90537693396145    2.69354286560337
H           1.89983688488984    0.28102364776434    3.15968486982047
H           1.59183861212214    0.84271026525277    1.75517418161507
O          -1.23625799764573    0.97657345304614   -3.17274892906758
H          -1.44119679150129    1.86614523472770   -3.47156025408591
H          -1.36126442257463    0.96559322836822   -2.20519650854152
O          -1.11543325454870    0.08143181454251    1.95243219468200
H          -0.34074566964220    0.45577062309144    2.42164836846514
H          -1.11438399751152    0.51681562934706    1.08541070736390
O          -0.35562511907171   -2.24266051820124    1.12843516886646
H          -1.12915157987761   -2.79994278455638    1.01542879792425
H           0.14813347368532   -1.77062633085359   -0.19782936234362
H          -0.67878053502362   -1.38976511602259    1.55777587840103
