    19
        -40.91198899
S          -1.46846379770951    0.87010014018514   -0.34212761420204
O          -1.36445804482438    0.80203702562299    1.08208249405646
O          -1.02647128609874    2.23081736626275   -0.86916583633887
O          -0.83439354995177   -0.17609260705427   -1.08463475557876
O          -2.99646530968362    0.85289908283779   -0.71137175112127
H          -3.45267766027900    1.39134510041437   -0.06718388898142
O           1.84207191553691   -1.80855981752360    1.28512048239096
H           1.76445549870177   -2.10960811090248    2.19189069292400
H           1.06519311723474   -2.17107104516567    0.80942098257679
O           1.38378049861096    0.84095521346922    1.11800794133330
H           0.44334851709814    0.85362834722141    1.34694841170707
H           1.66533340470170   -0.09900486556677    1.18069257566809
O          -0.35010312203842   -2.62514043380512   -0.06789440836274
H          -0.60093831192322   -1.74991554693375   -0.41616818547629
H          -0.22095196266462   -3.19034453189684   -0.83224362963878
O           1.35183009702239    1.68166086670339   -1.32070577576199
H          -0.00780668141025    2.13267015466113   -1.12555706510338
H           1.54734272539602    1.41754758566446   -0.37032882466402
H           1.25937396253676    0.85607605580625   -1.80678183545263
