    19
        -40.92079115
S           1.18828847914347    0.52218159705456   -0.72253982134659
O           1.00829960878790    1.92899505017563   -0.97252453683524
O           1.42706361104671    0.22882847383063    0.69206545871705
O           0.13055373309499   -0.32147823151540   -1.26122721288370
O           2.50008497992766    0.07390275641489   -1.48640684870623
H           3.14510975577191    0.71950998123079   -1.21497277527521
O           0.05213757599519   -2.76885403632732   -0.32043391713884
H          -0.66386767402311   -3.23530521586793   -0.75630150031584
H           0.19318617475604   -1.93430888705842   -0.82667214743059
O          -1.01114768018504    2.52387791438855    0.62528016035433
H          -1.40532835238439    3.33972594826710    0.31091000696657
H          -0.20834280139968    2.37999756707330    0.07877806155672
O          -1.96444284304253    0.08325630073187    0.33693140236672
H          -1.81053817337857    1.02904537765311    0.56913770605863
H          -1.41334300976601   -0.05415935667986   -0.46003016418715
O          -0.31905837660429   -1.21859079411575    1.68261372773280
H          -0.19413366609274   -2.01328225501082    1.06396495577036
H           0.48552600910687   -0.59688602693178    1.40325366125201
H          -1.14004736076732   -0.68645618332253    1.25817376332352
