    19
        -40.91941586
S          -0.65597681780612   -1.46770639486185   -0.18463266049184
O          -0.43885651755168   -1.43703360844100    1.26688193288373
O          -1.65976710638683   -0.49610397634848   -0.57904947491093
O           0.57924600715233   -1.33840037839836   -0.92441879060711
O          -1.23332193318225   -2.89703252300385   -0.50624142165033
H          -2.04670606017282   -2.91584935532839   -0.01158823683479
O           2.31626158651387    0.28347288538042    0.11611834195376
H           3.09246967934386   -0.20871767364747    0.38974044849622
H           1.72647161418995   -0.36235022582634   -0.35274602900124
O          -1.21002736320066    1.92531686510713    0.44883366504651
H          -0.74277649628013    2.17851655817455   -0.37104503894057
H          -1.67528829081498    1.10428683435958    0.18237127725020
O          -0.02780806814829    1.34613545710422   -1.88196964877610
H          -0.59616228378411    0.57653337862586   -1.72565135209397
H           0.85324410226245    0.99716356199089   -2.03141298360077
O           0.50702002611153    0.77787956417521    1.84397434118631
H           0.09355732555160   -0.18495172928939    1.74430921821823
H           1.32793551711860    0.72921073654813    1.23937300968972
H          -0.20951491091551    1.38963003366973    1.33715341218122
