    19
        -40.91790596
S          -0.53344601854888   -0.86627938744440   -0.13311741696679
O           0.58678880670773   -0.30203241794000   -0.84153386682102
O          -0.20040351623021   -1.49404738553346    1.11319092736415
O          -1.61527616364034    0.17731441073658    0.07471112571733
O          -1.24466738200728   -1.89867628522225   -1.06260811077935
H          -0.58077618323028   -2.60767399651332   -1.19370440091565
O           1.26168754516416    2.15835739910708    0.14682491780955
H           1.40753738419185    1.29934303676008   -0.27749583453306
H           1.01606502312970    1.93498076588091    1.06367443765244
O           1.08700715258962   -3.07487947101035   -0.78764754564712
H           1.01777371736015   -3.02716642825516    0.17286606660333
H           1.54812187196871   -2.27434281337837   -1.06150714758257
O           0.17149322022287    0.92550801929240    2.32305122233318
H           0.12544330097693   -0.01089323295902    2.07520499070520
H          -0.72379687508343    1.18597146512907    2.54980525183349
O          -0.99927736214132    2.28998970313406   -1.09866726145435
H          -0.12675154228591    2.43419252354764   -0.61509374805005
H          -0.76629617800265    2.06873391246630   -2.00400069371872
H          -1.43122681116608    1.08160019222646   -0.44395292352737
