    19
        -40.92161553
S           0.17029742670620    0.80308311479981    0.68029684912535
O           0.51006196999756    0.82027711436427   -0.81002841295547
O          -1.25242933045265    1.00151222533834    0.83344216470788
O           0.68842045816983   -0.37300959005584    1.31107334974513
O           0.92122433070397    2.04131725772086    1.21210553864970
H           0.46806829919726    2.80619371538238    0.77524958797052
O           1.90328101762286   -2.35623842347593   -0.05727374443771
H           2.10441991491355   -3.10805593826215    0.50228849375376
H           1.60918498010419   -1.63706806007473    0.53147752008631
O          -1.74780979497004   -1.59571020351031    0.27330463094360
H          -1.29715464563162   -1.99140750810440    1.02352401067816
H          -1.82805223621987   -0.65179235907938    0.49071623859253
O          -0.74058412889377    3.42839185890773   -0.22652008950108
H          -1.34404947818206    2.73547129572321    0.08649336317606
H          -0.52407364007873    3.21177639026083   -1.13784254141713
O           0.01963636497680   -1.43031655465094   -1.71566515709338
H           0.77272551679331   -1.93454905107459   -1.34328378912078
H          -0.75322486950571   -1.63961966277909   -1.13998400163164
H           0.32005785636036   -0.13025562169187   -1.28937399162999
