    19
        -40.91721625
S           0.20576883460588    0.93540940866791   -1.57166768878076
O          -0.79053896486660    1.58403822921842   -0.73309265167109
O           0.58647302690983    1.60770299928336   -2.76678267855005
O           1.32818574381326    0.47545332143897   -0.73721389265597
O          -0.50148970390347   -0.44072892020901   -2.05097101841376
H          -0.23111528326090   -0.45703917598157   -2.96254736415932
O          -0.37042046983313   -0.76230274741273    1.99527115227735
H          -1.19716897756774   -0.67338085512061    1.34682981427178
H           0.29902836467133   -1.33054003006821    1.45948731690651
O          -2.10823932599787   -0.39595569853383    0.23003672449514
H          -2.01060633076330   -1.04268366974666   -0.47563017729676
H          -1.72319991208799    0.44303062829986   -0.14844959692776
O           1.26590976285617   -1.84201024110674    0.38786164271505
H           2.16417778276538   -2.04016984256953    0.65944627872749
H           1.31914590589969   -1.01462885260906   -0.16419179570139
O           0.66384325335020    1.48507311952083    1.56600166840136
H           1.08792010549542    1.19313174864079    0.71966555274004
H          -0.04116326846778    2.07317279361868    1.26844464806919
H           0.05348945642277    0.20242778475789    1.97750207553750
