    19
        -40.92158999
S           1.34361865133514   -0.03252155715753    0.61058580051992
O           1.87093980036820    1.17039177429109    1.19499621219120
O           0.19209276186517   -0.55835048372533    1.35560625265390
O           1.03822011468801    0.05249524803973   -0.80963482396342
O           2.47659425573001   -1.13534439142539    0.71985386806428
H           2.90872143255184   -0.94462765781483    1.54678912097872
O          -0.57030306585506    2.22296001073979    1.35414914683913
H           0.38445371348452    2.01650175688957    1.32926104097193
H          -0.92270524842788    1.70612292844481    2.08251782234026
O          -1.31134755017655    1.30176191934481   -1.00829159853570
H          -1.22278744826414    1.84667070333723   -0.19062366223033
H          -0.38911986550009    1.05199260485905   -1.21451030809956
O          -0.17650553083649   -2.03194356596531   -1.82696236047744
H           0.46260938220858   -1.34964634887092   -1.51262197703103
H          -0.26890041313237   -1.90665990848687   -2.77358327874378
O          -1.75690194324784   -0.97949351818520   -0.11390161576895
H          -1.31255482591349   -1.55439463560665   -0.82328456689446
H          -0.99471954643337   -0.88361026343544    0.60948774344523
H          -1.75140469450017    0.00769538473534   -0.52983278626844
