    19
        -40.91955071
S          -0.14871117062463    0.29441540597304   -1.11882090187186
O           0.81594964067304   -0.75357867914350   -0.87732886451177
O          -1.51030397997044   -0.05842375100324   -0.89017715652046
O           0.24906665482822    1.52489330753576   -0.28248125989508
O           0.02709711831646    0.82103982535753   -2.55719995834066
H           1.00093534602437    0.98737211075433   -2.62801270476886
O           2.55942640375695    0.95419375097896   -1.99817045441287
H           2.33080557986743    0.14241990617923   -1.51662293546686
H           2.65242132947877    1.64676424039633   -1.33811165518167
O           0.12101348749782   -2.50519695716683    1.08004030798816
H           0.46861529869823   -1.91140515630789    0.39098158398651
H          -0.03473969393034   -3.35021676603923    0.65431867661361
O          -1.93984870319583   -0.86118858371139    1.68385693652868
H          -2.10341269608908   -0.68135541860816    0.74442809982862
H          -1.25524968931704   -1.55974088580910    1.68652724283771
O          -0.65866479393775    1.34576319627207    2.04550192747108
H          -1.15656951075119    0.46673584155561    2.03382766196123
H          -0.09720210829273    1.47080506668966    0.70043314657256
H          -1.32062851283943    2.02670354596281    2.18701031732490
