    19
        -40.92022166
S           0.05314293729685    0.50330568641196   -0.77304707985368
O          -0.99856517693662    1.02172180619014   -1.75363620355215
O           0.03759445010891    1.25011144158170    0.45846728329875
O          -0.13330468483742   -0.91677029503231   -0.58576066082997
O           1.36873456557582    0.77567782327398   -1.51022375448918
H           2.08548041202300    0.94119380575315   -0.79499488909179
O           2.82129467801247    1.01608195675276    0.54612694673292
H           2.70951085238727    0.08331776211368    0.83806925479551
H           2.16233190814617    1.51972293042219    1.03827891899262
O          -2.29006944175142    0.26053782762849    1.38154757588253
H          -1.48051244710534    0.76027006197721    1.17184591377641
H          -2.03614377793474   -0.39803793649228    2.03160453735341
O           1.99507368224924   -1.49713838574447    0.94256681805341
H           2.46499691664554   -2.23150884266710    0.54175203969983
H           1.16147576918900   -1.39802228609720    0.44387439053338
O          -2.86452500211723   -0.55448259764566   -1.09777209537537
H          -1.84768904599625    0.45964213006349   -1.62442644083403
H          -2.30344479196501   -1.33824030096415   -1.09390853170211
H          -2.90538180305536   -0.25738257749730   -0.16036402340773
