    19
        -40.90822108
S          -0.34503837348846   -0.40622489658671   -0.21330217974823
O           0.94401541695906    0.18950500787429    0.05760627927124
O          -1.37019693644080    0.73464046884766   -0.40431419584909
O          -0.40231797644741   -1.31663176597986   -1.30176807729302
O          -0.85421079719169   -1.08004602296106    1.08322906540817
H          -0.66175341996848   -0.43401744280578    1.80951370126292
O           1.38604539990608    0.62146856133670   -2.59138767172364
H           1.43600896484560    0.58340150031681   -1.62266345801207
H           1.62291535495512   -0.25760468619567   -2.89749750027421
O           0.14686030952559    0.87259318662510    2.49265571549812
H          -0.29178658305007    1.72683354248773    2.48716277475104
H           0.74195865976720    0.84982992682913    1.71983569078805
O           0.88588129096040   -1.82231123652495    3.53297834901962
H           0.81461361498656   -0.86405072001206    3.50595690076541
H           0.36688584776757   -2.16167757711048    2.80082614363593
O          -1.24556772175566    0.90079973438923   -2.92244252323831
H          -1.44234517139157    0.91759180191416   -1.40974176324252
H          -0.26097224252552    0.95007991652985   -2.96700320592564
H          -1.47099563745633   -0.00417931896947   -3.15964404512683
