    19
        -40.92453842
S          -0.29893347335853   -1.41813669883967    0.47187543570670
O           0.68709417206085   -1.52183261279220   -0.59769471651320
O           0.24440226015066   -0.68081741592832    1.60739225129740
O          -1.56145748832731   -0.87834512722750    0.01274051409546
O          -0.59564328569865   -2.88629622550247    0.97315192301401
H           0.24908400359187   -3.22522740392117    1.25489451138318
O          -0.41192094566237    0.16786805608210   -2.24048439450251
H           0.08158834285844   -0.55513236832233   -1.77847954397866
H          -1.33532213788195   -0.02606528239598   -2.04193630845093
O           0.29093592705165    2.03639985632049   -0.70163396709798
H          -0.01055266397187    1.36803094030317   -1.44891283733852
H          -0.44064488884221    1.95673146692300    0.04274061286732
O          -1.39188332893058    1.47874610468390    1.09013330229224
H          -0.88236407824445    1.22524952298665    1.86896392466737
H          -1.67213340229025    0.61211008739318    0.70563571638008
O           2.09583437483324    0.63685102175214    0.36159632548297
H           1.13630834437550    1.58602665382829   -0.28241261678359
H           1.49635142946784    0.16220476749529    0.99220051286654
H           2.31925683881678   -0.03836535283742   -0.28977064538729
