    19
        -40.90863209
S           1.06313786194106   -0.45514145750364    1.43047430381216
O           1.56405045504820   -1.09543844063711    0.13072094746966
O           1.14940326663149    0.97398634606447    1.35844702017172
O          -0.19824531697250   -0.99884280907417    1.80895732030045
O           2.15062321542382   -0.94503190207160    2.44580838225401
H           2.93260630400616   -0.42862980672081    2.26258629712065
O          -2.19374191109950   -0.38338339264048    0.06085603325663
H          -1.76204874650365   -0.65476431057325    0.88638292773532
H          -2.00272912142201    0.56508900803163   -0.02916780688931
O          -0.88525129860077    2.02131415005917   -0.02004490920192
H          -0.94888014779886    2.97181089144413    0.08967445788773
H          -0.11778936460832    1.72808875671841    0.51028704197830
O           0.43612892251531    1.15577996226109   -2.41277708293008
H           0.23121008093335    0.21718211555269   -2.41833351972338
H          -0.07725333785687    1.53576823317693   -1.68808915001210
O          -0.39158626735096   -1.47933871622640   -1.42688002076775
H          -0.57815667929058   -2.41722525927587   -1.50710696826891
H          -1.17433924283706   -1.06944012407049   -0.93916791521044
H           0.80286132810936   -1.24178327454698   -0.54262733927880
