    19
        -40.91396386
S          -0.24703606132515    1.73698530061761   -1.31419978315367
O           0.57250545449512    1.63064539467618   -0.11834696695749
O          -1.72236458539741    1.51805333010305   -0.89453975863522
O          -0.09717992470595    2.91511846100095   -2.07711006376621
O           0.06206063248851    0.51236125816134   -2.20986357925646
H          -0.29385359443962   -0.31618713614563   -1.78378162467352
O          -0.80694613591684   -1.65723101443012   -1.08095112646560
H          -0.54796954994751   -1.71786119868880   -0.13829453518419
H          -0.40853937738432   -2.40479529541975   -1.53138122483871
O           0.09411480238779   -1.67345757966333    1.46670171194244
H           0.32273621306764   -2.42192846419774    2.01954486577422
H           0.93980591429736   -1.22401839094717    1.21786268327679
O           2.18288241387295   -0.33351241850329    0.57584551093404
H           2.90212831956280    0.06054602947663    1.07242125550821
H           1.66112033831874    0.41878764272832    0.21729826631638
O          -1.31326615300491    0.74751336415546    1.53774888648835
H          -1.06806329139984   -0.18617100009411    1.62793111104076
H          -0.48261046227033    1.21930398928751    1.36788331093640
H          -1.74952495269982    1.17584770788209    0.04523106071372
