    19
        -40.91372213
S          -0.71981491493884    1.16876851509409    1.10255542850788
O          -0.31639955775851    0.04470228768383    2.07223178670584
O           0.40741205458732    2.00664743643383    0.82513468255830
O          -1.42473690559108    0.64364149580772   -0.01811758906039
O          -1.72430780835000    1.97864310547945    1.98814033342341
H          -1.19594771421949    2.49825445664438    2.59003588514065
O          -0.11324977445467    0.12471529043659   -2.58185884427731
H          -0.42732995668454   -0.76817930167709   -2.34083393069795
H          -0.74365163536720    0.72002644390657   -2.16470087605563
O          -1.11139271246848   -1.93365378326337   -1.08651936337692
H          -1.53018953243610   -1.16894247653804   -0.66947051642255
H          -0.37612571447966   -2.17308122550293   -0.51150047256692
O           1.84426818342634    0.35945507896131   -0.80770740697514
H           1.52721557340831    1.12881474690864   -0.30929134383392
H           1.25779261353367    0.29767818637875   -1.60276826478866
O           1.09420117018901   -1.53457662843290    0.70875781357943
H           1.84564960951899   -1.89181549537631    1.18709518746607
H           0.23793255648645   -0.65751623197331    1.56657034344809
H           1.46867445539208   -0.84358191109060    0.05224714717863
