    19
        -40.91814160
S           1.14873004780761   -0.36342723649164   -1.28931943908599
O           1.65762258598943    0.42690261124980   -0.16075057983296
O           1.57354685958186   -1.73323571197168   -1.25442494510963
O          -0.28882827683692   -0.16393987622219   -1.44116196225452
O           1.79825417301620    0.28403574036731   -2.58830224509204
H           2.57507334763346   -0.24932229609041   -2.72670287003517
O          -0.81922767200129   -0.64771067007573    2.47759474260850
H          -1.75908878880893   -0.65647384318671    2.66982658798899
H          -0.67975860857504   -1.30141494465333    1.74025487695493
O          -1.56054149639210    1.86365725412422   -0.44766266362866
H          -1.17818420121223    1.08172229080419   -0.92478810096565
H          -1.44337361813140    2.61666521668074   -1.02976259945806
O          -0.57332686185987   -2.13446179615030    0.33533979849087
H          -0.81107017914041   -1.51050327742663   -0.37014018982603
H           0.30114717116596   -2.44206071726868    0.05788622022790
O           0.10288851740105    1.47037802169765    1.43385557204631
H          -0.63206834963684    1.75126634446421    0.77916287271843
H          -0.26003611903891    0.65412158744602    1.95442679785877
H           0.84824146905212    1.05380131272164    0.78466813635198
