    19
        -40.91899957
S          -0.16325036170156    0.24905376643418   -1.17955571886435
O          -1.11592447698574   -0.23415891232151   -0.13534410290859
O           0.56203300009376    1.39816774598933   -0.67990132785000
O           0.69823073823900   -0.82843741271361   -1.60960458688126
O          -1.03467774645373    0.67236919551616   -2.39267141943626
H          -1.71594453536323    1.25383445531860   -1.99459260550597
O           1.50367079519387    1.21933117300686    1.71160202919343
H           2.45530415177676    1.15774420631131    1.60211208844207
H           1.13861585922494    1.43876232069103    0.80981965156760
O          -2.82340954297069    1.69365164007247   -0.75122440871031
H          -3.72257183457406    1.37116093318737   -0.84706030560936
H          -2.33522662771763    1.02082028363960   -0.24095024106907
O           1.82723256024461   -2.22666310949147    0.23865224528644
H           1.50822829283022   -1.70601188241788   -0.54909571476262
H           1.67972169555835   -3.14938322253449    0.02120178399206
O           0.26200305751259   -0.96887437971950    1.77720752977413
H           0.78621766836514   -0.08158864246321    1.92548875785923
H          -0.43081324869855   -0.69190807873015    1.01286411120849
H           0.92056056543045   -1.58787005978969    1.28105224426655
