    19
        -40.91068488
S          -0.53570852033115   -0.97390720348856   -0.98581611588140
O          -1.66885977257435   -0.84429153130381    0.02470046757729
O          -0.88176937885494   -0.33056073738534   -2.20437878625375
O           0.73884719043297   -0.70408404515172   -0.38431963396496
O          -0.52064596431397   -2.53705318888321   -1.27418608151253
H          -1.12677632908327   -2.70592837269558   -1.99279639078707
O           2.00778656516941    1.60364787921176   -1.24563240517730
H           2.61367604195038    1.80893638280655   -0.52975532737129
H           1.73662009301313    0.68151371043544   -1.12631306817074
O          -0.64087959305716    1.81106755037460   -0.49523799804400
H           0.23132015147474    2.02099503187550   -0.87442909191660
H          -1.14680320531397    1.43669856205474   -1.21935431951586
O           0.66806714434173    0.96282206625082    1.78868335966593
H           0.98298429145672    0.41648813789896    1.05096928217599
H           0.05693914379106    1.58193424373916    1.36404701315346
O          -0.77250538835845   -1.12865389166849    2.36321709164476
H          -0.12669831447102   -1.83946799154229    2.36401122304741
H          -0.25280748610197   -0.27646788366389    2.37382668318688
H          -1.36278666920913   -0.98368872881329    1.00276408811944
