    19
        -40.91335370
S          -1.85299898674450    0.28617544131601    0.30182402313428
O          -1.89110612348838   -0.36892866944120   -1.09136301231700
O          -1.49516782205731   -0.68921201733157    1.28696260646587
O          -1.09574700855158    1.49120654030363    0.27627887824270
O          -3.36433233059177    0.64620021447642    0.49810485881382
H          -3.80363639161481   -0.17102224845514    0.72282331969618
O           1.02538662356898   -1.69168864692212    0.91958412688496
H           0.12907030614871   -1.44933072658460    1.20317203951456
H           0.99841740830399   -1.72641261879189   -0.04340651433442
O           1.36147374125124    1.47782263916075   -0.90933746760777
H           0.52296352467793    1.79152781734849   -0.53523174843154
H           1.91485072992564    1.24758242247561   -0.12563311529630
O           2.40112106617446    0.57272100991380    1.37037698393160
H           2.02962414538633   -0.33373087107870    1.28579656943671
H           1.97267542939483    0.96541654495733    2.13260073913071
O           0.50996172831872   -0.76766831785510   -1.74390251999486
H           0.93045827205100    0.12522360596977   -1.46018363435514
H          -0.93104246577917   -0.57031819405911   -1.39586671820204
H           0.63802813359804   -0.83556392536946   -2.69259942468039
