    19
        -40.91833240
S          -0.59299594372896   -1.62053531816203    0.05385772404804
O          -0.87501963078523   -0.56894263567001    1.01099791545055
O          -1.55286301291615   -1.72992478866233   -1.01623438104596
O           0.78496922176330   -1.52569784450416   -0.45313028714706
O          -0.65411146444370   -2.97867745828564    0.86704032097024
H          -0.69126614312501   -3.64137412257092    0.18395502299447
O           0.52529153746987    2.02416734665674   -1.41035527331856
H          -0.38810528559043    1.63218044266302   -1.32426878621868
H           0.73024593383856    2.01336058489655   -2.34712962604052
O           0.92148623960579    0.76915709979875    2.31262213278601
H           0.50980789661373    1.60170744950465    2.55321259246277
H           0.19595699236050    0.18493396163343    1.97328698686260
O          -1.81668166663563    0.88435576836905   -1.15084390381304
H          -2.07678685958848    0.97424044690555   -0.22944521074277
H          -1.78500869321726   -0.08611800702946   -1.28996540251470
O           2.00961349384376    0.54680553825150    0.02662455404221
H           1.47971960462278    1.20573833967816   -0.56206505221065
H           1.72227576714791    0.71909312324554    0.99492103511163
H           1.55347203308397   -0.40446994691369   -0.19308037177477
