    19
        -40.92217183
S           1.00072680729463   -0.93457284186662   -0.18252170587905
O           2.39769109361932   -0.70129329673397   -0.41157997510699
O           0.56296825473446   -0.53843190747691    1.16236024138245
O           0.09865602879804   -0.41575505606372   -1.19525207817472
O           0.78213225551490   -2.51835335512039   -0.23215450811924
H           1.63331079486839   -2.88661281030813   -0.01422173290487
O           1.83340972275782    1.83540865214199    0.28469751476131
H           2.18396705952688    1.00105715374953   -0.07425198572973
H           1.88353284941022    1.74408102005413    1.23920045512690
O          -2.25432917050483   -1.28356332937779   -0.45748751104351
H          -1.41565914673073   -1.06649297948888   -0.92593181269326
H          -2.15030558913952   -2.17829192419985   -0.12780344506712
O          -0.63606266602692    2.11500398439431   -0.69602378234062
H           0.26195518530039    2.30258271748521   -0.34353643140037
H          -0.48411205780690    1.35918806194617   -1.29049084499011
O          -1.60232470071686    0.65460165387536    1.08437759608907
H          -2.10365852583685   -0.04983605792953    0.55312452572088
H          -0.68228645498084    0.16540296470311    1.25641089165413
H          -1.30961174020481    1.39587735047967    0.37108457844276
