    19
        -40.92079094
S           0.88857041684815   -1.14226173387258   -0.33708072471147
O          -0.31971422856386   -1.51984877612821    0.39851471239874
O           0.78474802448779   -1.41486774560345   -1.74747617864609
O           1.29022341076490    0.22105003819772   -0.01913703804188
O           2.04841794350102   -2.05626329028450    0.23221362116297
H           1.83581419273669   -2.91907269311144   -0.10960028128694
O           0.88300341216000    0.96941076835260    2.46159746335447
H           1.19703304096196    1.87080157312643    2.55746845112008
H           1.22707018872377    0.64249038872469    1.59688002247060
O          -0.85425547105296    1.71485733052006   -0.54614831612901
H           0.07057083358170    1.40074391733270   -0.48490888516942
H          -1.22665750202479    1.20448098406969   -1.30325146750925
O          -1.37671366617357   -0.05481635756203   -2.42825447355838
H          -0.62021437298345   -0.64413179181652   -2.21774420444605
H          -1.34927903752367    0.08670640026493   -3.37644003233058
O          -1.42000568006551    0.40559976926126    1.49797276777576
H          -1.34692257949422    1.05422019823030    0.65473295022932
H          -1.07133920733322   -0.49847278193352    1.08314714273658
H          -0.64034971847656    0.67937378219443    2.08751447057256
