    19
        -40.91930893
S          -0.24189311327994    0.82487839489579    0.18452149820958
O           0.10956441999489    0.41068935980547    1.50229735610413
O          -1.31379433897635    1.94085438145999    0.28599457000824
O           0.82751538004597    1.29881222459102   -0.66000983518658
O          -0.95419609732589   -0.31555924670628   -0.55412597098631
H          -1.17672781482518   -1.10276847803511    0.09608277649308
O           1.20603103697845   -2.11062275881060    1.67767190734847
H           1.11141393373114   -1.20362628178936    2.00007437542151
H           1.61828571859600   -2.01328328839782    0.79953445203345
O          -1.32913311347715   -2.15073952567134    1.10835454365009
H          -1.72116245243118   -1.74053724935351    1.88342406827543
H          -0.36697192544009   -2.31463748940854    1.34826102304208
O           1.79068721201528   -1.25693167680629   -0.85042014595437
H           1.16501165169691   -1.60216972000164   -1.49140529866444
H           1.65926112909411   -0.29755340847422   -0.83320865198163
O          -0.71552707065599    2.96171886467388   -2.02930784434281
H           0.05559902592978    2.39374383504509   -1.84759896946257
H          -1.32395705052788    2.40880802419372   -0.58825056489829
H          -0.40000651114304    3.86892403878980   -2.03188928910906
