    19
        -40.91898055
S          -0.35830924451218    0.53322270481903    1.50100921808338
O           0.36178517229693   -0.16198906769929    2.53514561238187
O           0.53331470578066    1.30233939002863    0.61552416093865
O          -1.23509043702002   -0.31634921738166    0.71049826169872
O          -1.28870931557612    1.60402603562411    2.20403484635308
H          -0.82754339433402    1.85328537468139    3.00055402777914
O           1.76622639387474   -0.39394641824295   -0.70663641433346
H           1.21937965376202   -0.41012873971385   -1.59631880307260
H           1.35643571526374    0.41191737623764   -0.16012565401093
O           0.20823767536460   -0.37564368436609   -2.69278168011161
H          -0.27525904779284   -1.19490446526570   -2.81783244171160
H          -0.45103801113278    0.29162421748479   -2.34684702972962
O          -1.40487218802305    1.23552961031485   -1.42368635280742
H          -0.86467563493237    1.95636781982184   -1.08560579060651
H          -1.54594749131092    0.65201087713801   -0.64942720014458
O           0.68311701531974   -2.14400019932352    0.77434442202778
H           0.88731478178457   -1.80296787166637    1.66143674093537
H          -0.22768962230062   -1.82272263616248    0.63523940789860
H           1.46332328348148   -1.21767111632764   -0.15852531159392
