    19
        -40.91892640
S           0.87127833494788   -0.57817455271163    0.98048541681979
O           1.50265412904915    0.52405120228674    1.67364633376451
O          -0.55880821490899   -0.65543926375724    1.14781995321697
O           1.23768453973105   -0.59349464883947   -0.44819771405256
O           1.47419115309645   -1.91063759419528    1.58213917436277
H           2.39894402213420   -1.71846173119128    1.70698487261840
O          -2.26175551797435    0.05376803593408   -0.88763450429766
H          -2.04902877933523   -0.86199956306529   -1.17750988178287
H          -2.10951426957922    0.02283341978624    0.07048548295039
O          -0.96324330458381   -2.28101676021448   -0.97254255899929
H          -0.09749713186872   -2.17750527370600   -1.37830231504650
H          -0.84082780189411   -1.98975203879473   -0.05361527587699
O           0.34911273125653    2.60182426296228    0.62331594072695
H           0.76257142841146    1.86406935145412    1.14072622550683
H           0.98381344960276    3.32169923409887    0.62513371890464
O          -0.12313503715249    1.21909315102102   -1.45567883987256
H           0.51464451583170    0.44030707578483   -1.14967232053932
H          -1.09571625404003    0.80586241485982   -1.31339781237642
H           0.00463201724718    1.91297325824357   -0.71418590601871
