    19
        -40.91373482
S          -1.10565933144002    0.40744917510965   -1.18163510880428
O          -0.76104760605561    1.44503020881949   -0.24659659598322
O          -0.22626991851567    0.48271812678509   -2.42034287577794
O          -1.14629076741839   -0.91943255795195   -0.66114694994750
O          -2.52670383371542    0.74873914256229   -1.75621482799119
H          -2.53551974272920    1.66951406790660   -2.01290319349813
O          -1.35018867009405   -0.11019250483906    1.95754036237848
H          -1.50264129450793   -0.77357643452431    1.27229191156919
H          -1.21050409966206    0.70924069744585    1.46391166741452
O           1.21092243043728   -0.68748274185388    2.55608903116298
H           0.24113374200794   -0.55639838209567    2.46799945359046
H           1.46494390720051   -0.29488345611141    3.39264648064574
O           1.82386866041580    0.51076852189671    0.23315910432912
H           1.73438465438628    0.04334155201228    1.09379315578814
H           1.03219229650508    1.05777659256568    0.14282324711558
O           1.50692784343012   -1.14030606881635   -1.72967294613391
H           1.83290713094432   -0.56332904473171   -0.97531968881085
H           0.95110591757307   -1.81598698638436   -1.32568647721097
H           0.56643868123779   -0.21298989779538   -2.27073573983172
