    19
        -40.92136406
S           0.51773868044859   -0.98195429023711    0.83032853139899
O          -0.16054031763196   -1.32274660707984   -0.43276131686506
O           1.91702861870082   -1.32913185101940    0.81066970723719
O           0.24978497834097    0.38834090892713    1.20451533168964
O          -0.17452325030528   -1.89616731757975    1.92862266282084
H           0.35722520182202   -2.68694268742724    1.94337666373136
O           2.44576024181800    0.85609000646683   -0.56410778458823
H           2.34093992353614    1.52253432124887    0.12067962517853
H           2.42996587918576   -0.00615604656883   -0.08996025419100
O          -1.21886406610461    1.86648837838010   -0.38366824492705
H          -0.68719676500967    1.55636905269907    0.38484266729650
H          -2.00100901721416    1.27232005738751   -0.35469996999449
O          -2.61302420326760   -0.35746006902037    0.07750994341548
H          -2.79259178045120   -0.54111899863604    1.00115349212196
H          -1.80685206736179   -0.85996272824891   -0.14573078995618
O           0.29399180669399    0.64581747029269   -1.91988751453035
H           0.07695768809239   -0.26405803377687   -1.49570084513903
H          -0.39846011838016    1.29820403395760   -1.37818125277811
H           1.22366855732308    0.83953440985776   -1.53700064190768
