    19
        -40.91898030
S          -0.49040256892789    0.36055285659518    1.51481563836192
O          -1.06495844126057    1.67534253149844    1.62614524597794
O          -1.28691214565814   -0.52847656426744    0.65088419075571
O           0.90132505508837    0.35140433703384    1.09317741395550
O          -0.52427584717883   -0.30044298325741    2.95285503952118
H          -1.30053443902039    0.05662280592025    3.37619716571861
O           0.26907823293786    2.28886769650666   -0.60296961504850
H           0.88383253519414    1.73552365634065   -0.08572313265871
H          -0.36469606706609    2.57910126013929    0.07479233947284
O           0.98111578337800   -2.12880660100416    0.18021875737810
H           0.07506608549321   -2.36389678784409    0.40268315708151
H           1.12321088925539   -1.26299116016321    0.61610262988755
O           0.93614351174694   -1.20382723434530   -2.25935890152229
H           1.00858888714153   -1.68787712470238   -1.38759699360354
H           1.77486934859205   -0.75736556217646   -2.39234446193813
O          -0.96773473696783    0.33805558376420   -1.64921420855005
H          -0.22310489952387   -0.29579402915012   -2.01508288309551
H          -1.23112315773757   -0.07726687553244   -0.71360792268370
H          -0.49948802563295    1.22127418503658   -1.38197344993449
