    19
        -40.92087811
S          -0.92763573339857   -0.75277433180436    0.10758523604166
O          -1.08256657856905   -0.26574818151308   -1.24699408027663
O           0.55339044804679   -1.04536927188721    0.34287192428526
O          -1.45122093043036    0.09093045473933    1.13271435931022
O          -1.56981152510916   -2.15344200689814    0.21899846730641
H          -1.18401569305181   -2.65284152098080   -0.54129503762334
O          -0.18919691414501   -2.71007551167651   -1.91939849976440
H           0.71668286413091   -2.66661066933019   -1.59992162316454
H          -0.46143895689798   -1.79599369711339   -2.10318087408546
O           0.32957315711771    2.00933961988823   -1.39310802341528
H           0.48690533084858    2.25055248691812   -2.30768094840338
H          -0.29882997958885    1.26252874435131   -1.40153366558954
O           0.06893378797176    1.75927947609863    2.59424260431069
H          -0.63387890746489    1.27388767787146    2.12212488958489
H           0.11214872066808    1.38258822485141    3.47511669679113
O           1.73731600295430    1.08994337580775    0.66474099206357
H           1.38480732152858    1.59124198808758   -0.10403983406497
H           1.26636407281585    1.45934273933561    1.45407336553595
H           1.14247352256952   -0.12677960670793    0.50468406116772
