    19
        -40.90771830
S           1.14888974542962   -0.52404608963101    1.39339876622938
O           1.11647999900105   -0.90252998176883   -0.10198993583429
O           0.65143599714837    0.80900759784459    1.55791337442405
O           0.55399505218753   -1.56323591153019    2.15605241418872
O           2.69574363205957   -0.48338332526879    1.67803512097614
H           3.00201621430927    0.39263194414885    1.44966924034105
O           0.86051310980439    0.93276233793099   -2.15076737451496
H           1.04084592233087    0.31359817788652   -1.42563993559476
H           0.77539193781669    0.40310955206486   -2.94624898465547
O          -1.88180452859990    0.21836866393891    0.67125158091467
H          -1.12047474786926    0.53299881752914    1.18166790616715
H          -1.93861716149833    0.82606367517712   -0.10008243238115
O          -1.53593925890841    1.95705712774689   -1.34880169785697
H          -0.67362522970487    1.65561390848229   -1.69817671794849
H          -1.38303193832886    2.82524305671312   -0.97201508965530
O          -1.03560190606787   -2.08725491231464   -0.06994557535847
H          -0.93505335890072   -2.56355460459746    0.76320943442132
H          -1.55057610530412   -1.24750322975834    0.16447231969117
H           0.20941260582898   -1.49494680418243   -0.20200240294581
