    19
        -40.91146958
S          -0.10409977372978    0.70084379956088   -0.89206645915400
O           0.36124767569514   -0.41688173260035   -1.72805135055621
O          -1.48012539089529    0.49885730186824   -0.49516276301595
O           0.79750983459245    0.95091746632189    0.20939153308563
O          -0.05332974595377    1.97412208558497   -1.82495966915450
H          -0.62060993196802    1.75116945916966   -2.55744506252921
O           2.03048922089274   -1.04634002714072    1.36084542574412
H           1.75655981081248   -1.01884740833203    2.28076830119647
H           1.72440781739586   -0.19820524863398    0.95886079324000
O          -0.41648340008118    3.37538569164316    0.74458024030742
H           0.04014090455426    2.52589934898312    0.70772927167458
H          -0.33798955202273    3.74925002384586   -0.13477838385305
O          -1.61881812865342   -1.70396697474709    0.84507224557627
H          -2.45594096654219   -2.12311972226384    0.63441863948048
H          -1.64889957454674   -0.80141889791614    0.42659186760098
O           0.57269427303945   -2.36451917030427   -0.23096933466638
H           0.53408770557028   -1.60513977150473   -0.98160138322555
H           1.26017175771248   -1.98531045985435    0.44165474986128
H          -0.34101250646862   -2.26269576357545    0.23512130863027
