    19
        -40.91373486
S          -0.53042570995482   -0.05196800610426    1.58170861503007
O           0.73620142666810   -0.67848371603479    1.31201558331253
O          -0.33613631370026    1.39047074192155    2.02343223309760
O          -1.50970405145572   -0.14509460701897    0.54951622145007
O          -1.11889766680927   -0.72297414166658    2.87369990031212
H          -0.43277659757325   -0.74880338510559    3.53878650640930
O           1.41186973068397    0.99758486719827   -0.81348143559084
H           1.20000046636961    0.44997042126537   -1.60234950233958
H           1.43407021658786    0.38824159931015   -0.06355155542515
O           0.70126721986995   -0.75250925465376   -2.72126647579378
H           1.36523561336194   -1.23409502434807   -3.21689878551643
H           0.29233789881153   -1.39605808067430   -2.10153152846939
O          -0.28185608243776   -2.25418150244341   -0.71417685668441
H           0.33722833361782   -1.99961188406922   -0.01660246891862
H          -1.07948608368830   -1.74662949177150   -0.51653962617612
O          -0.60747443016066    2.48042823731027   -0.17953771851095
H          -1.34274310552646    1.96609921057271   -0.53094288135905
H          -0.46423814969801    1.99256386411913    1.15403074101440
H           0.22552728506725    2.06505015218965   -0.55631098582874
