    19
        -40.91346213
S          -0.17272524525801   -1.89618366937437   -0.75417336753206
O          -0.49619732025146   -1.51472272029486   -2.09348132031645
O           1.32678899691883   -1.83552585087248   -0.51420001183262
O          -0.88168279726850   -1.19277451060851    0.27896190011854
O          -0.47588160523597   -3.42675192799219   -0.58196879942611
H          -0.16690861738323   -3.86501906701773   -1.37243278643707
O          -0.94478309933820    2.73256494038856    1.14760373710135
H          -0.43630074063556    3.54215799631364    1.07685509733682
H          -1.00318698599043    2.35703393360842    0.25760531199125
O          -0.65659004194169    1.09966596041862   -1.12186954109785
H          -0.96259876785473    0.35532603202117   -0.57305804859117
H          -0.74905087726226    0.78334785266192   -2.02560280472524
O           0.28928650638285    0.50742597634141    2.17934160154832
H          -0.22425585132666    1.32673034934832    2.04635403270137
H          -0.26786282909616   -0.20782004236262    1.84262371527363
O           1.75468820481651    0.53248542402026    0.03600828114402
H           1.61819362449745   -0.82075120241145   -0.27494517190077
H           1.07445648205318    0.95989271830003   -0.51910074735599
H           1.37461098421128    0.56291779749795    0.96547893195964
