    19
        -40.92453814
S          -0.55595158228887   -0.20988328063373    1.40329972031935
O          -0.31214712781344    1.21975405666830    1.24920255103516
O          -1.56608338205161   -0.66794418528034    0.45569744492962
O           0.66110431346088   -0.99130510388308    1.33749562465314
O          -1.14808955111348   -0.42555148238322    2.85163262789739
H          -1.93179143845608    0.11559893698793    2.88025613089501
O           0.31937398527811   -2.04767594474623   -1.01054525222907
H           0.56059322254157   -1.83069566801159   -0.07664243471642
H          -0.64388959244173   -2.09380068890254   -0.98930643359408
O           0.89571138507813    0.21135190601699   -1.96875859633554
H           0.71326701856669   -0.78449463486893   -1.70312191865559
H           1.48201845448578    0.59509778341522   -1.19061072630787
O           2.02548247487813    1.04695433155529    0.12368338241976
H           1.19977100841702    1.28796033916024    0.61334948324703
H           2.34971076154979    0.27099128777166    0.59555434770492
O          -1.32034999900147    1.21290160350427   -1.31022622293331
H          -1.58945042470428    0.47308791115526   -0.70803781656382
H          -1.11061901011180    1.93311611805311   -0.70406167843712
H          -0.02866052627445    0.68453671442256   -1.84886021332798
