    19
        -40.91620868
S           0.77095777425816    0.05021535583638   -0.77476455984233
O          -0.24234473016756    0.32699087925992   -1.75374160747984
O           0.75697142415667    0.92214004760044    0.37113840570458
O           0.69585812308133   -1.40067725694190   -0.33390852044272
O           2.17440661204797    0.12631281254292   -1.45485644002132
H           2.26260639575342    1.05547364794219   -1.75254382954082
O          -2.27328394842176   -0.96934096448563   -0.52190920799640
H          -2.16273964262516   -1.86970217040760   -0.83524789378454
H          -1.65647102841002   -0.42762063630947   -1.04367492071621
O          -1.81539286594314   -0.76664998309948    2.12966075768939
H          -2.05547046579938   -0.88610209812530    1.18580347948476
H          -2.05752328296199    0.13457689896947    2.35023235164180
O           1.40021891155362    2.62682709999520   -1.73951444832845
H           1.17272670028121    2.61440968301682   -0.80191431265243
H           0.59384897004123    2.39248453591620   -2.21108021485353
O           0.78953825732193   -1.14483839554823    2.13150391758729
H           1.03980788897838   -0.21477662262938    2.03674089367572
H          -0.19045821140909   -1.12906887287665    2.29447551493083
H           0.79674311824899   -1.44065396066935    0.72360063496774
