    19
        -40.90739469
S           0.26248754930524    0.40511481673811   -1.01157574741947
O           0.93278207664227   -0.41193064704366   -0.02557812698621
O           0.56079441532316    0.12201025363561   -2.37112617455838
O          -1.26196608050762    0.30020242165042   -0.75878284119975
O           0.53847824694452    1.89420108953341   -0.69458949754792
H           0.37442380534600    1.99644825407395    0.27118598574558
O           0.44960820680213   -2.68377446742361   -1.44676632551423
H           0.71034941953808   -2.02773454733278   -0.78026746921078
H           1.12142863015374   -2.63935181556198   -2.13155930594011
O          -0.00131912478098    1.27990402442515    1.80510607377180
H           0.42636832106972    0.46926105616298    1.47373060787791
H          -0.93869180751686    1.08162878209351    1.88874253461196
O           0.69223305013186    1.70003524788987    4.56381191353587
H           0.51007598835790    1.62151222409296    3.61827274651987
H           1.50979192838500    2.19346131074012    4.64442324250903
O          -1.77135749956718   -1.55191185705360   -2.39828757875821
H          -1.41062139474959   -1.15910684620748   -3.19936099701223
H          -1.07316677108474   -2.16416427534657   -2.06509827219350
H          -1.63169893268676   -0.42580502800165   -1.38228077771441
