    19
        -40.91329958
S          -0.03370411568550   -1.56534384286102   -0.67131308042847
O           1.16229591035304   -1.14928506209274    0.00745263348292
O          -0.93761647103501   -2.30396232124628    0.30384569796408
O          -0.72559183367836   -0.54833604902415   -1.39679222661765
O           0.34033449411846   -2.68910215003463   -1.70010606999336
H           0.88395108066898   -3.33982631095325   -1.25884536786353
O           0.47737175193701    2.80816573086763    0.42244217679284
H           0.35559075674677    3.68930324805530    0.06602033777593
H           0.95718427165757    2.29217545926350   -0.26292689756366
O           1.46624752129548    1.14339692920839   -1.44438669087238
H           1.73435884341024    0.41240413396373   -0.86968376074026
H           0.64511464487913    0.83484045931810   -1.84745354863957
O          -1.56584668264590    1.09062496228509    0.70141462127926
H          -1.49886068841996    0.63878565394372   -0.15100086550679
H          -0.88849775751953    1.80329930758922    0.68562724451127
O          -0.66036787715102   -0.77685446281029    2.22844009768268
H           0.28796229257779   -0.61345285986146    2.18095006879120
H          -1.10162939231983    0.01926831314833    1.79551823693014
H          -0.89829673968442   -1.74610112840819    1.21079739273521
