    19
        -40.90985429
S           0.15682548317786   -0.55572555320837    0.51763167205633
O           0.41329692637016   -0.50759371787943   -0.90104076993211
O          -0.50824684154124    0.60344322823329    1.03840737522423
O          -0.62892910510458   -1.82119782277810    0.85379008074889
O           1.48671861023295   -0.79695697701762    1.26979615905977
H           2.21082645451341   -0.35016246502939    0.76905833423127
O           2.87434076049689    0.38909757424815   -0.60570398848346
H           2.04314530050222    0.17549111588344   -1.07053040530694
H           3.59524295322797   -0.00525294006949   -1.10289926314313
O          -2.91404442781649    0.62417569858249   -0.17769645853518
H          -3.60528669782388    0.79752669992263    0.46476224515880
H          -2.06769036068028    0.80100455895398    0.27246765113478
O           1.56888450710404    2.56334426208576    0.94934919765848
H           0.77562947567239    2.02718308822344    1.06070999931432
H           2.16713610999240    2.07133784285683    0.38093241129936
O          -2.15215314208686   -1.72336282485479   -1.14247675222813
H          -2.63032329439381   -0.89694732546592   -0.89377909035710
H          -1.47389002051065   -1.45053561187391   -1.77053207009419
H          -1.31148270137439   -1.94486883073577    0.08775367205383
