    19
        -40.90781926
S           0.62986274712838   -1.43273782232161    1.78126402237893
O           1.54219940804030   -2.04322630892314    0.85919354386213
O           0.79904029697717   -0.03026985120889    1.99052592766961
O          -0.81547530812928   -1.77620772647089    1.40928747079823
O           0.76792509369038   -2.15664105307322    3.16952987704803
H           0.81716226125084   -3.09584421276452    2.99868619664476
O           1.48106171469081    0.30196811544745   -0.57075156601767
H           1.31789606806672    0.50450162611138    0.36873462406599
H           1.96207187796090   -0.53451531872594   -0.54320391882462
O          -2.11159973432911    1.76876197449997   -0.78155773726596
H          -2.83614508913596    2.10227338285964   -1.31230821339982
H          -1.29274905112355    2.16979159248974   -1.13492806184045
O           0.27622171475877    2.41859293978350   -1.93399083722635
H           0.84989440389205    1.81302147147299   -1.44029803116748
H           0.42743162318776    2.23527699846963   -2.86305077638719
O          -1.05757459028135   -0.67508777605594   -0.81609711450273
H          -1.60118644809199    0.14335315638194   -0.73225282090994
H          -0.13888384599601   -0.35369679645715   -0.91784260262054
H          -1.01715314253847   -1.35931440148588    0.46906001766664
