    19
        -40.91814130
S          -1.74675729339902    0.04113323581854    0.24542939432500
O          -0.91825610334041    0.47357321001013    1.37855612379965
O          -2.35154156528249    1.13466066927462   -0.45927581391227
O          -1.01187586209883   -0.90345055088646   -0.58938966958063
O          -2.93264756163810   -0.80313520582079    0.88464878887687
H          -3.62358320456391   -0.15592574117563    0.98865673446610
O           1.06439769560541   -2.21814834121289    0.23290546303505
H           0.25007472395003   -1.82173027931886   -0.17334461518685
H           0.76922586996810   -2.97534047100111    0.74191089783641
O          -0.04952249687739    1.23397779777852   -1.86494847616362
H          -0.28191429621781    0.30394127796666   -1.70837698787255
H          -0.84027031197036    1.70164125351712   -1.56046082358424
O           2.18994313953767    1.46515327236393   -0.52731763191733
H           2.85988209142602    1.11046822691364   -1.11524207063945
H           1.34686190845298    1.50098895276304   -1.05515617935595
O           1.49326400630047   -0.00840143220271    1.41395155588078
H           1.47352216828578   -0.94614566085762    1.00434316370319
H           1.85730856639275    0.62654746827358    0.68353878075841
H           0.45188850550089    0.24019232785064    1.47957137553125
