    19
        -40.91941584
S          -1.48311347804488   -0.51099025381515   -0.39452582926843
O          -0.54666841769994   -1.52196748401278   -0.85109283780125
O          -1.56930320383477   -0.50010028445314    1.07080683116032
O          -1.20855025308060    0.80153396311064   -0.93482420725634
O          -2.91156985467643   -0.92768744893206   -0.91007470916872
H          -3.02266206859791   -1.80207406341779   -0.54997140422484
O           1.50473149743563    0.12947269746795   -1.75345000972877
H           0.69050286501832   -0.39655368409395   -1.74197059622515
H           1.22536625239088    1.04590841813124   -1.80320633284761
O           0.41769653954980    2.25112721108706    0.47406271349737
H          -0.04823946818626    3.01599924591314    0.81686138231566
H          -0.21816450764944    1.78204427318462   -0.12627345868114
O           1.79579343897610   -1.40134595807137    0.42307637869358
H           0.97443100102922   -1.76267714940451    0.02778917268199
H           2.15043184397454   -0.84574678579316   -0.29821865926062
O           0.63930766943075    0.18755581695389    1.95565777222882
H           0.69715708657824    1.08580674378261    1.47433381786292
H          -0.33461649653419   -0.13440162946710    1.72006571486643
H           1.24746956391761   -0.49590362814304    1.40095427114693
