    19
        -40.91188301
S          -0.11485199233897   -1.64209686417503    0.57669890399678
O          -0.79970850026150   -1.68974829943387    1.82697254188895
O          -1.03839075519496   -1.05791216009507   -0.49624839077430
O           1.16149508737306   -0.99756426610339    0.53875049314936
O           0.10220890731555   -3.11018634929197    0.05718245155583
H          -0.63370116402851   -3.64336351927348    0.35237754710831
O           1.03259282837343    2.50675818314154   -1.18044801118877
H           1.11834106243258    1.62938737838278   -1.61210962596748
H           1.88907549233255    2.93022854781248   -1.25552501521716
O           1.21027647210556   -0.05502902345095   -2.01560806944268
H           1.40551649768516   -0.44217138899137   -1.14638175390254
H           0.32071724458575   -0.34690341427487   -2.23217086868458
O           0.26669429623773    1.56476729291235    1.21034646975394
H           0.78106034237258    0.74697812936598    1.18037318309289
H           0.50337106872871    2.05555477797066    0.39027552066581
O          -2.11456185514009    0.61930855093111    0.94977356974097
H          -1.60872944977351   -0.30358079415978    0.01970276122633
H          -2.20493532588808    0.07395978125765    1.74037783138636
H          -1.27647024695803    1.16161341743941    1.09566047160344
