    19
        -40.91373490
S           0.33453400751886    1.60717947051455   -0.30035735765314
O           1.59450292622700    1.82338508819673    0.52339636172096
O           0.58181426785226    0.69107321879159   -1.38175541839757
O          -0.77991174455680    1.30499465154597    0.53623184354612
O           0.09866708001069    3.02482390560952   -0.93335912316694
H           0.79169568182892    3.18937134635548   -1.57088970364776
O          -1.96623111549541   -0.36898771562667   -1.29106734236076
H          -2.03222557800757    0.22836848254032   -0.53489950290848
H          -1.11409717575578   -0.14832187371217   -1.69076202093820
O          -1.25844377081884   -2.62300727956466    0.00072308667070
H          -1.66022851247486   -1.86280533489788   -0.47477959855528
H          -1.38501376318578   -3.39213151440958   -0.55679439542840
O           1.16344289991992   -1.49254559404822    0.25346193951147
H           1.10542838565911   -0.86757022815689   -0.48155395534455
H           0.32788230311570   -2.01088706609657    0.23620131963841
O           1.17952176221180    0.12307170854391    2.26994789541641
H           0.23679280014847    0.25935107931559    2.41602834717309
H           1.25139559955842   -0.64436583076892    1.62618518903752
H           1.53047394638717    1.15900347594259    1.35404242572455
