    19
        -40.91689929
S          -1.74509633508920    0.12400029773633    0.54942423152871
O          -1.40682588668067   -0.14206039646490   -0.86149845479409
O          -0.60842303296947   -0.25766354669903    1.39512101331543
O          -2.20472829596289    1.45342803213455    0.79522677560309
O          -2.91365754486663   -0.88622746535273    0.87667687873013
H          -2.64472547773230   -1.70937239118862    0.47642251195470
O           1.04248898386535   -2.04694841897964    0.47037726497383
H           0.37660360221129   -1.40454072126463    0.81908465889013
H           1.59181679650079   -2.28376442919580    1.22028947011694
O           0.53755783234258    1.25527169446502   -1.42356233753796
H           1.29470034660607    0.55266854502075   -1.46215818153986
H          -0.35384953385084    0.67086767615695   -1.29174719030136
O           2.21870357116530   -0.64847567390241   -1.41681602161591
H           2.17054055125265   -1.16342898733330   -2.22464837493344
H           1.82618472514663   -1.21662921351615   -0.70066912309562
O           0.41285439074290    2.14011995628478    0.95113712196287
H           0.61546876676264    1.74115674115372   -0.51613054963092
H          -0.45895963935475    2.55837961484344    0.98914718777658
H           0.24934616993050    1.26321868610746    1.35432311861300
