    19
        -40.91373479
S          -1.20675154915004   -0.07870949132804   -1.14863646078726
O          -2.14439673039680   -1.11435288958149   -0.54762440232881
O          -1.17366462603414    1.11103383204951   -0.34050392324041
O           0.05710917103334   -0.65565695624314   -1.46941491109065
O          -1.92953681923571    0.28995568473588   -2.49329561518024
H          -2.72870873628059    0.77086545459455   -2.28387057592825
O          -0.07652886255663   -0.13347657849501    1.90230206469233
H          -0.54243563373744    0.46419554321499    1.30238774288095
H           0.87317307289000    0.11645457688325    1.85168347810071
O           1.47769050852038    1.62956347952859   -0.91260677195370
H           1.39190398112040    0.78964347659029   -1.38173238531419
H           0.57427803619252    1.83952391409635   -0.63991771465741
O           2.42774091771700    0.71482105446180    1.43505651500386
H           2.80996669370673    1.42602414434417    1.95119636504485
H           2.22929955686379    1.08755211102081    0.54785656356040
O          -0.47558958542498   -2.40706311419451    0.74017334352593
H           0.24743399228310   -2.42795993271617    0.10341405128652
H          -0.27469006874754   -1.64415419146190    1.36141860220789
H          -1.53629330886186   -1.77826010740615    0.02211404410884
