    19
        -40.91689953
S           1.02319485992516    1.12728101465742    1.02515459279471
O           1.39757810971091   -0.23228683396453    0.61973960195241
O           0.02442943063598    1.65521858048974    0.07668588564480
O           0.62631882309136    1.21488959671764    2.39401542286027
O           2.29860655721887    2.03244759853118    0.80711602076660
H           2.37662808798943    2.12101003842364   -0.13950681048197
O           1.08006694650796   -0.89201767140211   -1.87979823894217
H           1.52977340174060   -1.73468163953709   -1.96852449091900
H           1.23538133339545   -0.60304515536471   -0.94703686604097
O          -1.95128227268154    0.19654822984389    0.20860050116668
H          -1.88517178101858   -0.32474497808695   -0.68153978819492
H          -1.16803710758040    0.92840570001276    0.14119243454946
O          -1.54236610459075   -0.97279513962714   -2.00844263240800
H          -0.54761659292567   -0.98243757609510   -2.01176520098558
H          -1.80820781259416   -0.42488135364935   -2.74951287168116
O          -0.69177338107551   -1.11659143277524    1.97741355182368
H           0.16182913327934   -1.09780565574373    1.49861222034467
H          -0.55521180939084   -0.46834754920424    2.68272324127509
H          -1.60413983161794   -0.42616578321998    0.95487342646209
