    19
        -40.91245445
S          -1.27172024285417   -0.35495661538602   -0.40667504901629
O          -1.83580711945833   -0.92713068546705    0.90189467977909
O          -1.41558639656698    1.06190085563075   -0.47474381073327
O          -0.01286928562760   -0.95179178154643   -0.73134370485633
O          -2.29610610323379   -0.95013886855478   -1.46013809603603
H          -3.06895290855994   -0.38881894030879   -1.49163034884289
O           0.37133076362057    0.54557346973095    1.60116970352369
H          -0.29067881145976    1.02582912069244    2.10129566968907
H           0.77313934645521    1.21765175793882    0.99419920389005
O           1.05030908705302    2.34364627947844   -0.21235316329861
H           0.12069277736941    2.29448641130053   -0.47047940766386
H           1.52912997438884    1.84980478330582   -0.90348729228979
O           1.98014977865954    0.45532995820074   -1.95187078173925
H           2.79793967407644   -0.00601622490960   -1.75674776434844
H           1.25966241650333   -0.10378416346660   -1.61362224663312
O           0.24768829248055   -2.11779427955392    1.72829235104138
H           0.56119172473492   -2.25587416535505    0.82572432649974
H           0.60456330155524   -1.24784084432752    1.98138436990598
H          -1.10407626920066   -1.49007607067529    1.33913135998899
