    19
        -40.92453850
S           0.20039941266479   -0.36821124763514   -1.46536358585802
O           0.67383379507968    0.99997280277300   -1.28540139536289
O           0.99854146380065   -1.29987397258053   -0.67684216255149
O          -1.21901681058527   -0.50243944930486   -1.21349442242986
O           0.42186177614910   -0.73683256704562   -2.98517020894461
H           1.35959724951147   -0.64475882584691   -3.12671180618854
O           1.85142622679766    0.70254639616668    1.00408017452515
H           2.15873169571535   -0.20246967733876    0.87511305661604
H           1.51856512347521    0.96496108037389    0.10816611312701
O          -1.57695880601402    1.67226869227551    0.16076931901630
H          -1.64968636722625    0.87654713020868   -0.42140235545096
H          -0.90320702195743    2.20845758943237   -0.27400401620105
O          -0.78007080851037   -1.81462292686502    1.14858548137620
H          -0.03405381773912   -1.79704851019629    0.49827244975661
H          -1.56651305149960   -1.77610851428700    0.59194534050333
O          -0.42163019497017    0.50299160780090    2.07192223072427
H          -0.97623148409787    1.06897740465721    1.38843205299397
H          -0.62712040646456   -0.49390706920095    1.82611136949431
H           0.57153202586846    0.63955002661555    1.77499236485413
