    19
        -40.90950727
S          -0.19699305563332   -0.75162952093735    1.25739056777077
O           0.91644756376100   -1.43203889901559    1.84734775507553
O          -0.00278327263819    0.65047608507259    1.01716971743060
O          -0.66976623602706   -1.47177852820766    0.01045781932121
O          -1.43195149944572   -0.87707249695095    2.20913239228710
H          -1.65582809480661   -1.80077212479240    2.30196829848470
O           2.57589334462918   -0.40926240620474    0.00095808542155
H           2.70913236239202    0.47737468906841    0.34315534065772
H           2.18188743004262   -0.91857160228735    0.72999902802025
O          -0.14539413456894    1.78185867063730   -1.42242447177326
H           0.14256060791517    2.69441450716026   -1.47700473597035
H          -0.08940733036467    1.51868374550807   -0.48433682329236
O          -2.67878395572402    0.90065347986854   -0.00125972711178
H          -2.25600140911908    1.16422896084409   -0.82410771101999
H          -1.98136872018683    0.84345609973267    0.65620195709309
O           0.72122622071573   -0.71677800823734   -1.88681869635403
H           0.40331587324783    0.20062393733846   -2.00911841769140
H           1.56873815395831   -0.64886303571310   -1.39136734729518
H          -0.11092386805104   -1.20500355323681   -0.87734305094818
