    19
        -40.91287547
S           0.21520998064492   -0.14648252689177    1.77146012444349
O           0.55317270058300    1.02279646998231    0.84641787363912
O          -0.93932932342274   -0.83450577540500    1.26126978479390
O           1.38777554889091   -0.89899539248818    2.03819624900914
O          -0.23070658262933    0.55433583512100    3.11205061117990
H          -1.18221244501275    0.64292404438231    3.11315070016863
O          -0.04005154957708   -1.50632480930214   -1.29616752494759
H           0.91643106040121   -1.38041589499627   -1.14848922121548
H          -0.44542550602702   -1.52272212675603   -0.41928792173727
O           2.45087797915728   -0.78320490668694   -0.45818075710925
H           2.30369042008879   -0.99138729108120    0.47741138034276
H           2.58937245832316    0.16579416878752   -0.49505465901338
O          -1.02598918726141    0.58107734846579   -2.59077790465799
H          -0.69481522169288   -0.28391355740281   -2.24291987337348
H          -0.30771543306487    0.96291422829095   -3.09710845038236
O          -1.66898147960585    1.37270252604788   -0.19882214134426
H          -2.02072842220748    0.53378426737133    0.12855787200245
H          -1.50996103303817    1.21779335773569   -1.17397998187953
H          -0.35061398454445    1.29383002489915    0.37227386010412
