    19
        -40.91114880
S          -0.55594493713968   -0.30609460869450   -0.14862562689580
O          -1.27890034744302    0.15929546567429    0.98501861290247
O          -0.64441080956584    0.52663375005326   -1.32658732045714
O           0.94345307891437   -0.50666120753472    0.16401739833353
O          -0.99666461158254   -1.74086678323183   -0.50833938108314
H          -0.55815394811012   -1.94728032593138   -1.37711735626076
O          -0.75173485660121   -2.20093929142052    2.40174882847460
H          -1.02868886402800   -2.75656215984039    1.67083969476218
H          -1.01055707159492   -1.30390522718695    2.16387556476338
O           0.36789682002299   -1.55836388147219   -2.69827956302273
H           1.30358845123178   -1.57475872449540   -2.48038083977836
H           0.07151531445545   -0.63661518734501   -2.61790359679300
O          -0.52201702707817    2.77309673567215    0.22381836945066
H          -1.17169043352283    2.49554921068640    0.87748509347451
H          -0.65347613380536    2.17818629618295   -0.53153559218303
O           1.73729905132548    1.72055897877177    1.09503330343980
H           0.93713972948524    2.25675306751004    0.86192595649136
H           1.33225129968446    0.31605770706610    0.62248791556505
H           2.47909528524486    2.10591615558797    0.62251854882723
