    19
        -40.91893388
S          -0.77058870784302    1.29644672744352    0.86396261023041
O          -1.76883666712073    0.68406821291662    1.70334124112174
O           0.59988000848395    0.94536485802885    1.17997640212061
O          -1.05163813389831    1.09625980569965   -0.56604342448061
O          -0.88296752158186    2.86232833726532    1.10074788830259
H          -1.81344782699698    2.98915081303792    1.25926821055993
O           2.45572339132791    0.36312048842569   -0.53029781707338
H           2.95899757140263    1.15842310277095   -0.71394642187118
H           1.83814084643930    0.58948821690013    0.21262106610392
O          -0.48292438144882   -1.60293961360903    1.41272999394911
H           0.36654534795708   -1.24577600070702    1.68865977971858
H          -1.11478344056307   -0.87472634323922    1.58075604837441
O          -0.39455313260227   -2.41766022573200   -1.07960087735513
H          -1.30283617478911   -2.60132066460432   -1.32735550446159
H          -0.41142591484248   -2.20288133076892   -0.10854268086276
O           0.46248307088967   -0.21945475289254   -1.98975577576324
H           1.36199186677434   -0.04951349356802   -1.52847704533744
H           0.16357816438418   -1.17335739496647   -1.71815210239193
H          -0.21333834572532    0.40297926767135   -1.43989159062189
