    19
        -40.91209432
S           0.37664044952408    1.60013078103325    1.03114966037001
O          -0.00530828040395    1.23300221640556    2.35601509316595
O           1.53959362649174    0.73557549033097    0.56279765003556
O          -0.64194876194032    1.64006079113610    0.02483548672224
O           0.99965469998483    3.05273055352706    1.10353447953615
H           1.44105185521751    3.14265528987466    1.94620680697740
O          -1.95666717579064   -0.38499739602117    1.30971303037636
H          -1.88884045584928    0.32166692725265    0.65414123851532
H          -1.42792758616540   -0.06537289263170    2.05264630889772
O          -0.84012017675703   -2.50810141367842    0.11705399317175
H          -1.23279064686934   -1.74553227746321    0.59906929764649
H          -1.55122778742466   -3.14269117701497    0.01103194699327
O           0.41286436132108   -1.80781108537198   -2.12934252321002
H           1.18498717288074   -2.37538366415340   -2.15943542498331
H          -0.06966357006803   -2.05106353695703   -1.30451463231539
O           1.08762273387949    0.71074378711202   -1.87028998368479
H           0.83835003438207   -0.23609681431298   -2.06556643848662
H           0.25477509765461    1.18564691437219   -1.74394166582588
H           1.47895439984821    0.69483749660033   -0.49510432382995
