    19
        -40.91898059
S           0.43306110112766    0.72917542339342   -1.39369968844705
O           0.30982342196552   -0.73671015071887   -1.31164386503201
O          -0.67378131679621    1.33544266826840   -2.08545102341989
O           0.68658665680459    1.28321010338074   -0.07308312260241
O           1.73741013852774    1.00023403163913   -2.24923504385424
H           1.43999304729755    1.04361061693898   -3.15415671548389
O          -1.94150926869551    1.35296932519412    0.26513007993793
H          -1.01779173824971    1.58972610651696    0.47159034640673
H          -1.99153273912175    1.53560024576594   -0.68829724619211
O           2.02149395258960   -0.77022809882215    0.92323007562939
H           1.68298745650846    0.10028990791765    0.62752268158025
H           2.00333109506516   -1.31656563245871    0.13150489147337
O          -0.08097341741597   -1.41408897359951    2.32818427176831
H          -0.19047891061861   -0.71756481766581    2.97887548426483
H           0.80346939652524   -1.25458327760620    1.89010660145502
O          -1.54026235305471   -1.15078114249878    0.28503894406588
H          -1.87358047001639   -0.17278848230844    0.33981521537061
H          -0.78861682030895   -1.09849003255246   -0.45608791492541
H          -1.01962924210421   -1.33845784077281    1.17065602802157
