    19
        -40.91344953
S          -1.28107763017495    0.06019257149274   -1.66463746415947
O          -2.16504637860027   -0.65945787267825   -0.65680874452587
O          -0.48699057579209    1.05385040767022   -0.97362591765992
O          -0.54974775740601   -0.83124453474008   -2.49300246348320
O          -2.33795138496372    0.81362371152924   -2.54232413582673
H          -2.77729368659860    1.44919432337458   -1.98015701310884
O           1.45499761059035   -0.77274908757138   -0.56040434972164
H           1.44382712256709   -1.27866201940114   -1.37826921337191
H           0.93299138947662    0.02535371350001   -0.76050748024083
O          -0.13543373228067    1.17856350814901    1.79716464703239
H           0.83394885755686    1.14723418015765    1.90705227927596
H          -0.28208713939140    1.46021894789069    0.88297110204123
O           2.52401302411727    0.52273434095890    1.68535327776491
H           2.88612486945987   -0.10051997114330    2.31731816864615
H           2.40798671103852    0.04375662296571    0.85192015550659
O          -0.60867672221422   -1.29754337131049    1.15361691577860
H          -0.51737863695448   -0.40387897263374    1.59931780477332
H          -1.56239430284334   -1.00884204576817    0.16704058859058
H           0.22018837243726   -1.40182445250333    0.64798184265174
