    19
        -40.91330396
S           1.12594881739757    1.22353472653480    0.61985875652425
O           1.00819177542460    1.59845198612503   -0.86722998376824
O          -0.18672650562977    1.10245480621275    1.18626568723546
O           2.00873939861865    0.12545534246604    0.81049744045295
O           1.79200385638150    2.51397809392299    1.19937264731492
H           1.11571890746188    3.18755618853110    1.21651717963873
O          -2.32016700079098    0.19811918660073   -0.39051272310820
H          -1.73312776433594    0.72975554088696    0.16461808987822
H          -1.81532518093548   -0.01339020027855   -1.18334967439558
O          -1.33248015876883   -1.57448826817202    1.45695519778753
H          -0.95579434769554   -0.81243252908625    1.90941981239423
H          -1.96985821402650   -1.19107178075204    0.82686020500775
O           0.70501595502245   -2.06179634897801   -0.17796839983607
H           1.37958088206673   -1.52413590234933    0.26428781318661
H          -0.05691966268063   -2.09223244149953    0.45119581411934
O          -0.00827249804536   -0.41737617634478   -1.98048259237222
H           0.24480862087228   -1.15453147477618   -1.31533403177665
H           0.58863015570916    0.81064890083349   -1.37821706452517
H           0.41003296396823   -0.64849966983601   -2.81275418366756
