    19
        -40.91167195
S          -1.23626890553074   -0.65071921860686    0.70702008460231
O          -2.14911040124641   -1.33037007000174   -0.15466905657355
O           0.16686177432418   -1.23547475051909    0.52438508140035
O          -1.21063995173847    0.77741659566801    0.64247414510076
O          -1.56232004885620   -1.02155661978624    2.19740022322939
H          -1.80307008834219   -1.94543893722450    2.23127767513652
O           0.94043923682900    2.03065030903913    1.69874770756250
H           0.10972131795847    1.59866452915277    1.43212501664349
H           0.77345020912365    2.97499019958977    1.68063070059117
O           0.02199903557975    0.81538199831430   -1.88116508912562
H           0.92032098467766    0.94071071267240   -1.49604208587732
H          -0.59031599021562    1.04986097354301   -1.17329639287408
O           2.23427918797690    0.83722694014426   -0.37177331296874
H           1.92553690611836    1.34362985770853    0.40559708860366
H           2.29211567105096   -0.07412434563479   -0.07601713142122
O          -0.04997784239175   -1.77146431989043   -1.88100638230039
H           0.19706782926839   -1.56004290059645   -0.48835253390608
H          -0.99359915806108   -1.97447625457067   -1.86106110440166
H           0.01351023263072   -0.80486468843708   -2.13627463345631
