    19
        -40.92246917
S           0.07608826925010   -0.21065969656150   -1.04660077713414
O          -1.13782339040183    0.31342915665917   -0.28387440185909
O           1.02676482334532    0.86404944778656   -1.21278621262549
O           0.59386444723099   -1.39071692131534   -0.42274476254933
O          -0.52309804729081   -0.58315133881534   -2.42034387288948
H          -0.79923517372584    0.28701349550242   -2.80330168130180
O          -0.21449833428903   -2.30962977008006    1.97115828436002
H          -0.89714948755858   -2.97086313047775    1.84571949697058
H           0.16651008527052   -2.13381677687904    1.08980643276273
O           1.90903338132208    0.67294200986289    1.33156252557049
H           1.75988398737389    0.89325160505074    0.39610613118236
H           2.33321480307112   -0.18880644488312    1.33499024647554
O          -0.90890657832434    1.97118475047881   -2.71863896025818
H          -0.04981415873398    1.98975595542680   -2.26633167725796
H          -1.56885555810482    2.20698177733607   -2.06051723325214
O          -0.59303057415868    0.30951222640626    2.11874870159780
H           0.35147403119741    0.59046138063431    2.04548602702225
H          -0.96996141155777    0.34905764417012    0.80297179582620
H          -0.55446112389304   -0.65999536000102    2.29858993726922
