    19
        -40.91893425
S           0.76103161953276    0.71545309280127    1.38752400888144
O          -0.06167667961664    1.53577611435382    0.52045779559055
O           0.08047706801349    0.16032131965061    2.53003498802091
O           1.47911682593551   -0.31191909300575    0.61782267062549
O           1.88588677300688    1.67833258632761    1.95895494212708
H           2.14268582490869    1.24911467299966    2.76947342946887
O          -1.20953628965373   -2.20582073206891   -0.90156925453168
H          -1.57468103852846   -1.58147037122876   -0.21814526005756
H          -0.97671219620172   -3.00880178473153   -0.43133026302660
O          -0.07931445584248    1.46802525681040   -2.06913898026631
H          -0.14332453627530    1.60090954219813   -1.08798156621091
H           0.51571710654209    2.14589888164718   -2.39469609908125
O          -1.92505340666217   -0.48303988290198    0.94084022575513
H          -2.01643460733132    0.40031222006861    0.57128587837066
H          -1.26798585008666   -0.37560165972176    1.65850896471044
O           0.79948500956260   -0.88070163573928   -1.67714299484345
H           0.43778387498702    0.02188105288864   -2.00175778186162
H           1.17643692615881   -0.65348877902677   -0.70133722571572
H          -0.02390197829222   -1.47518080133044   -1.47180345800132
