    19
        -40.92246925
S           0.62296923643202    0.84676010916679    0.19952258358138
O           1.51374099615574    0.46378672016409   -0.87100473688744
O           0.72847046122944    0.05929191174410    1.39047019660169
O           0.85099240766562    2.33308022704712    0.55068293857519
O          -0.81151396413136    0.84385797896494   -0.32288782019308
H          -1.24877263092871   -0.16405051769946   -0.34764759911408
O          -1.63335590226475   -1.47922129852059   -0.29229197177005
H          -0.79537713528834   -1.92580962743322   -0.56522187793554
H          -1.69910713833863   -1.63854631917746    0.67905146014139
O           0.90360198676802   -2.15626621742611   -0.63929891837329
H           1.25698014614524   -2.37009892720929    0.22783982124575
H           1.27697844585725   -1.28926997356344   -0.87314260822523
O          -1.23590837223008   -1.51908518273416    2.32874742108074
H          -0.44325722928823   -0.97973724504282    2.14566006015367
H          -1.74451718610774   -1.04123378410287    2.98598429562087
O           0.68735175621010    2.75698524080543   -2.00936153928520
H           0.82321159560611    2.79223979483392   -0.32602888926465
H           1.16956074235156    1.91405626914262   -2.01578200587012
H          -0.22204822587250    2.55326085111413   -2.24529081006923
