    19
        -40.91864567
S           0.20560998926394   -1.10073070850343   -0.37137484177795
O          -0.56278042269049   -0.46556394871740    0.83852121066150
O           0.83009273431614   -0.01958507265432   -1.09695610311019
O           1.06280636067969   -2.12038999858983    0.12391837690836
O          -0.93279284649311   -1.67548409781591   -1.21307796992806
H          -1.27297623420332   -0.90929699230011   -1.80705014509284
O          -2.36139870166399    1.39701765664744   -0.11241817089558
H          -3.23865316271527    1.19615666861627    0.21962213358133
H          -1.74275015967900    0.82008223554560    0.36391986252621
O           2.52449206239668    0.96367584758686    0.74672840430186
H           2.48270240803293    1.92106105298156    0.70179264564803
H           2.03831820265054    0.62643549413407   -0.02897358218419
O          -1.49293015354123    0.44438142309668   -2.46515143678254
H          -0.56142682421815    0.70034231529540   -2.42599115647846
H          -1.93655485759468    0.95028445585304   -1.75009562025367
O           1.33112384132731   -0.67425132888689    2.47586362896714
H           1.61356095982892   -1.52996738994444    2.12817603594548
H           1.91623671848457   -0.01315708350396    2.04253928630383
H           0.09732008568384   -0.51101052888777    1.63000744170065
