    19
        -40.91974991
S           0.24098007458065    0.79957118067182   -0.11168217494954
O          -1.07193678871045    0.38604519078675   -0.52367775222478
O           1.00055860296164   -0.26042648455980    0.51894563434964
O           1.01591376545764    1.36083916110850   -1.30576958739926
O           0.18432416042431    2.01157457193827    0.82195522188104
H          -0.29510917624166    1.78781084123648    1.69496031314302
O          -1.23818094062089   -1.11616993395352    1.79272301003673
H          -0.31735670523943   -1.14426625766764    1.48921796606821
H          -1.73886020819572   -0.87432136972329    1.00369544951800
O          -0.94928097735677    1.22272074615625    2.96094578999338
H          -0.30635205935561    1.12455199140811    3.66747333648059
H          -1.19331098170355    0.30670682046480    2.66632009642026
O           1.25539652233036   -1.90200882510352   -1.60560279649698
H           2.17959779050255   -2.11414300090292   -1.75145921306286
H           1.21257157917999   -1.41828689377424   -0.76047590723910
O          -0.07537841805140   -0.08773841808308   -3.05982198440812
H           0.37587666378152   -0.90496694353796   -2.75580308718052
H          -0.92360291291306   -0.07418058276462   -2.59823804315049
H           0.64415001917298    0.89668821627177   -2.14370628179179
