    19
        -40.91440007
S           1.49643811576933    0.68599347556966   -0.35696688120028
O           0.44181798708526    0.49296179982531   -1.37083251008038
O           1.51909772389979    2.00894563318674    0.19379817565109
O           1.44976154961891   -0.39981940862445    0.61335486764349
O           2.86616671418227    0.48612410942542   -1.13705993022318
H           3.12944593544752    1.35137645364207   -1.43930067588770
O          -1.86605242241444    0.76617642801323    0.08286172632644
H          -1.47411200916159    1.06205776190455    0.93383428043251
H          -1.15832408659005    0.88299513682281   -0.57196752603418
O          -2.12286774699051   -1.78716915530403    0.10625677475259
H          -2.13100708035506   -0.77711322774607    0.18197392723026
H          -2.85446696480304   -2.02554472801289   -0.46657100212519
O          -0.23345998487208    1.34190871960903    2.12312535207725
H           0.21945815415931    0.52074784752712    2.33591768541553
H           0.39711654775404    1.83734829276440    1.57343414409002
O           0.16906612509340   -1.90195405826933   -0.87711799844235
H          -0.81190167605110   -1.97316502455904   -0.46236486215737
H           0.18925707031650   -0.97611697524780   -1.35404714694612
H           0.77456603790240   -1.59575308052527   -0.10832841051891
