    19
        -40.91535456
S           1.71057319712587   -0.24572534583919    1.01184550200076
O           0.71245964515812   -0.50306634525908    2.12764697598783
O           1.69887927943122   -1.31773630087884    0.06136837158383
O           1.55017541735070    1.07548519214463    0.48132389263185
O           3.07877389518630   -0.28924078720453    1.77937245406018
H           3.25266888415529   -1.21429601818800    1.93713075183447
O          -0.81127255798754    1.93375652118077   -0.28371820234773
H          -0.87240859091468    2.87813337536578   -0.12851339384238
H           0.11358301927204    1.67991080065747   -0.06105368833000
O          -1.16733591306070    0.40005495429410   -2.56996500808086
H          -1.02511801292278    1.04374258075858   -1.85576457967246
H          -2.06781893825147    0.51865594549319   -2.87699931268354
O          -0.78939590695644   -1.76988413440525   -0.95804859023840
H          -0.86880511937621   -1.13215306400753   -1.69407295801277
H           0.15608629412976   -1.80304629454425   -0.73729229031446
O          -1.50288471811140   -0.34554938936053    1.06740747024938
H          -0.30654699668871   -0.45156760015222    1.73566825132400
H          -1.49010981979333    0.53906049681984    0.65740459096628
H          -1.37150306794745   -0.99653458691210    0.30625976287926
