    19
        -40.92113578
S          -0.01523405195210   -0.02923912233764   -1.19579346249777
O          -0.46040436384147   -1.09735715220192   -0.32097723449632
O          -0.96762484765984    0.39970213603641   -2.15908331819718
O           0.40756512143079    1.16555485890130   -0.29284508972693
O           1.30319204722460   -0.42896423752992   -1.85121971370136
H           2.02901419786199   -0.40015149521847   -1.12686253427115
O          -2.56782323819339    0.02865189275712    0.93736848257620
H          -1.91831123460749   -0.51795462737604    0.45929702525451
H          -2.43669002733013   -0.14425848254955    1.87200470405850
O           2.87767518577272   -0.24233078665465    0.12469737657331
H           2.43393480576962   -0.85128839401146    0.76524201564389
H           2.66774519695375    0.65002950100658    0.41572912975426
O           1.28770199304917   -1.81513490673567    1.53705001216636
H           1.41963009717483   -2.76402310623807    1.48913704879521
H           0.55882343760760   -1.60590380400433    0.91536168502782
O          -1.85688126245201    2.27558190447440   -0.32392619613471
H          -2.31934380562986    1.60018942628408    0.21923612897801
H          -0.42506667193699    1.75725068243837   -0.22319055200056
H          -2.01790257943040    2.01964572294416   -1.24122550779317
