    19
        -40.92120589
S           0.56944583436236    1.19680919665346    0.38257597574205
O           1.79902349086664    1.23341355310568    1.12530402773939
O           0.74379850003777    0.76614398534360   -1.00503158901608
O          -0.52033620156224    0.47707308564872    1.02119237683607
O           0.04615015340428    2.70299366137896    0.28682927199052
H           0.84133625000123    3.22740317285012    0.28471830175006
O          -2.49680882124402    0.67324853270772   -0.68562095261447
H          -2.49610832748999    1.56428019906433   -1.04026035351032
H          -1.89053458217336    0.68688955468539    0.09061360991050
O          -0.37994562089486   -2.14474809687309    0.50073256547465
H           0.59990608963405   -2.13940329178049    0.55272514091423
H          -0.63119201972012   -1.33930622621309    0.99085145819357
O           2.15911980463778   -1.38403530318770    0.75260030696394
H           2.83846278837034   -1.68017906294999    1.36212053297471
H           2.09682560241863   -0.41536160468424    0.86190042020258
O          -0.83941260090425   -1.01205454794367   -1.67490418959630
H          -0.08536159010052   -0.29227829297879   -1.52359421444174
H          -0.68691054641082   -1.64964360754485   -0.83237121639982
H          -1.66745820321143   -0.47124492732213   -1.45038145308863
