    19
        -40.91868608
S          -0.21835647275318   -0.00838847620992    0.90444252994580
O           1.29519589337038    0.28428747303459    0.82535655896718
O          -0.68662083214961   -0.33914634955010   -0.42151020938712
O          -0.49199355372433   -0.99562007999165    1.90066822205386
O          -0.81080266372494    1.32646289984925    1.36010077380981
H          -0.59282290579649    2.06049937576727    0.69294290725995
O          -1.31544767245184    1.46331889779384   -2.26238797073453
H          -2.23548195659006    1.32370605316891   -2.49436232688103
H          -1.06408048515931    0.71354841500794   -1.68329840840800
O           0.79918341153201   -3.25177043942109    1.25251259578082
H           0.20420455111318   -2.53776433380845    1.55440840904971
H           1.30341050967129   -3.52445629053301    2.02171546137694
O          -0.41748234074598    3.12708955876961   -0.40815830964761
H          -1.03390229293506    3.85480458784031   -0.29761442051276
H          -0.69101101758701    2.63441130797176   -1.21842889527235
O           1.76842178996144   -1.70095873052622   -0.68126863454006
H           1.54178618843104   -2.42710958619564   -0.05553861664053
H           0.97604930236527   -1.56192420046480   -1.21184907816937
H           1.66975054717347   -0.44099009250698    0.22226943196359
