    19
        -40.92174068
S           0.11839105268716    0.49345501005192    0.73765708379776
O           0.47719189449514    1.09609204583427   -0.60805556617149
O          -1.31995638066683    0.40599912713111    0.87730806577716
O           0.81280195326363   -0.74464236448988    0.93735135183739
O           0.64941198480992    1.53207478688107    1.74927795871180
H          -0.02357928999079    2.26097194429495    1.76680023688570
O          -1.42804416207150   -1.81995630261856   -0.65846454581432
H          -1.61917742120194   -1.05813993303287   -0.08676579410701
H          -0.89523329139320   -2.41831722982472   -0.12814544801093
O           2.26171446225422   -1.91813527405349   -1.00346179496256
H           1.81673490875413   -1.60457560464520   -0.19329170879143
H           3.16513993783580   -1.60083949021193   -0.95762594196976
O          -1.53111082836267    2.93535977728437    1.63013580837235
H          -1.81218042341149    2.08517196753534    1.24402378410657
H          -2.02554667326621    3.04900938239520    2.44581603566359
O           0.30691190499186   -0.68132975718140   -2.31543137660895
H           1.10016782852332   -1.21499694506295   -2.07816147411746
H          -0.45618655120098   -1.17731193196384   -1.93518295410068
H           0.40254910381365    0.38011079180878   -1.42378371102778
