    19
        -40.90880540
S          -0.55279064531995   -0.95537505613361    1.79859340688249
O          -0.49533972039125   -2.30084973250631    1.32885401305377
O           0.85123817649914   -0.41685959767246    2.03402426713295
O          -1.30979586358534   -0.01665892995553    1.02101231545851
O          -1.19070624228266   -0.97614924757750    3.24313926109776
H          -0.92010829177831   -1.78623849939667    3.67147703100126
O          -0.24815710706066   -1.11700325599476   -1.20163907726841
H          -0.81035443630185   -0.64317015769097   -0.56770120518729
H          -0.15131865443254   -1.99511969777717   -0.82011753268960
O           0.69859118183447    1.86166417163129    1.07809966296209
H           0.88349978705424    0.59810295742556    1.70851805991339
H          -0.25614816998269    1.81517933806268    0.93684470753703
O          -0.43362199044401    0.91021907275405   -3.19068414488964
H          -0.56676208577931    0.10319477144359   -2.67360881176147
H          -0.40443487105440    0.64762713233664   -4.11168181784654
O           1.53546119504825    1.05189973958404   -1.26081800773134
H           1.11646246211714    1.69306463514039    0.18435748952733
H           1.25706096824893    0.12626073069507   -1.18919818772063
H           0.99722430761651    1.40021162561135   -1.98947142946870
