    19
        -40.91439953
S          -0.53941605250125   -1.30748823981074    0.91517762550600
O           0.70515518827342   -1.34351978213519    0.12320303444176
O          -0.32393444698355   -0.99661903863269    2.29761859977260
O          -1.53212137671213   -0.48845314974578    0.23245571591862
O          -1.11257830648915   -2.78831558560289    0.85864487830350
H          -0.76529244315295   -3.23809962614276    1.62435543478853
O           1.56632583841288    1.25826101897478    0.21050453737690
H           0.91854358855750    1.60933982717616    0.86044168006543
H           1.50958028715518    0.29270511240593    0.29844059213559
O           0.66010076240159    1.60893237182898   -2.16491754729344
H           1.40311939468868    1.68824783744542   -2.76642341889465
H           1.04483920387659    1.60615794658893   -1.22790586357210
O          -0.52348446200191    1.64595417097264    1.83593764028874
H          -1.30479275510672    1.55250784381911    1.28326147261908
H          -0.42976147197101    0.78621008970623    2.28019056879136
O          -0.39790280559604   -0.64335571395385   -1.96096749453016
H          -1.14164225387311   -0.49672829927987   -1.27132486169428
H           0.00804276326154    0.32342942754028   -2.15932385377248
H           0.25521935775223   -1.06916621115063   -1.26936874024233
