    19
        -40.91955064
S          -0.03534224850815    0.63365169565763    0.97940636625593
O           1.28725335682251    0.36574960720622    0.46339317228299
O          -0.82583786378665    1.53400048897021    0.20795646762945
O          -0.76338458537155   -0.70952717734690    1.17481443109463
O           0.08197071698316    1.14246663866635    2.43023343595596
H           0.68136014527531    0.48243154147234    2.86168778179071
O           1.48772994746758    0.44851081372646   -2.24527261377218
H           1.50540416840016    0.36469721263708   -1.27529591154221
H           2.04184137938644    1.20078490774751   -2.46130216157092
O          -1.20911577504282    0.63254050982325   -2.34062131420199
H          -0.26077900155647    0.52099359542855   -2.55212215601601
H          -1.22118508178819    1.22065503725825   -1.56886697228178
O           1.66233171693004   -0.88253281674986    2.81180740615580
H           1.11261720615381   -1.66770507999465    2.73893952090748
H           1.92330769641610   -0.64316363435303    1.90756172033939
O          -1.84524925169730   -1.44913404350635   -0.96027862165390
H          -1.61464334161269   -0.70800218021575   -1.60703219568799
H          -1.20809002710667   -1.05559715487405    0.29640310587290
H          -2.80018918016395   -1.43081995197330   -0.86141145999690
