    19
        -40.92139826
S          -0.78379001741067    0.20740363830339   -0.90065058046094
O           0.27188904751585   -0.28642235221186   -1.78141356209572
O          -1.20188022530504   -0.80563061111577    0.06355182215801
O          -0.37197299685826    1.42715562347029   -0.20811341294503
O          -1.99573889230526    0.55201641370281   -1.81283183910396
H          -2.66348260274746    0.87155474282402   -1.17193972536971
O          -2.99966702270870    1.19253788179022    0.53724478991252
H          -2.71468848683954    0.30048454832449    0.77777729138707
H          -2.20823830930282    1.73906797743339    0.62890747224929
O           2.02035173477215    1.21629690223801    0.74327707596578
H           2.51560283338940    1.97643343644239    0.43059436836633
H           1.07896951882880    1.36345267986145    0.44707456822334
O           0.68721154271353   -2.30322637742482    1.02928063799837
H           0.70276796020911   -2.09979098265361    1.96712893725246
H          -0.11673267929633   -1.85163822864888    0.65909040468625
O           2.23832037274333   -0.99251189540005   -0.47025274653433
H           2.32451990353484   -0.11085581460033    0.05885307724567
H           1.74922850545419   -1.64762626099235    0.16450417623102
H           1.46732982358746   -0.74870132134818   -1.16208275509579
