    19
        -40.92022160
S           0.33135516103597    0.54970917436853   -0.66598829042374
O          -0.55991475611948    1.25526583522676   -1.69364646349329
O          -0.10988701510696    0.85413119425046    0.67533952872507
O           0.35835171404445   -0.86149609477028   -0.95304198195712
O           1.69717971180554    1.19391213316766   -0.90209277288932
H           2.19874317218580    1.19597422110756   -0.00639966941381
O           2.57930557772143    0.97129227986898    1.45762817512296
H           1.77087446164152    1.29233001649992    1.87288823612022
H           2.51478992508997   -0.01057780193747    1.48334662894855
O          -2.58284186426186   -0.18653434042833    0.63280452794363
H          -1.68787321154198    0.17272687636908    0.78594037047285
H          -3.19940680599187    0.48510912733518    0.93197399128676
O           1.81637389289434   -1.57592814407824    1.19469749532055
H           1.17682065644836   -1.92542334116700    1.81909109309421
H           1.34580819181430   -1.48643275048819    0.34636212111029
O          -2.22935935420766   -0.62239173935686   -1.98246711648091
H          -1.29622939538180    0.59167139521420   -1.95867358739888
H          -1.55760881282641   -1.31434888697834   -1.97852140673393
H          -2.56648126925918   -0.57898915424177   -1.05924089932904
