    19
        -40.91790596
S          -0.34884315866556   -0.08525869239510   -0.96139406108533
O          -0.37473641017580    1.31251622123502   -1.28335145076959
O           0.86514218487527   -0.53539207095130   -0.32994121111341
O          -1.55722435953563   -0.45563871852920   -0.12163966761604
O          -0.57858927624660   -0.92274807311424   -2.25811569050057
H           0.17280800724417   -0.68380290547669   -2.84024053694837
O           1.65477142935913    0.29899336518177   -2.90296519737077
H           1.26452196481134    1.15689453564251   -2.69949259300897
H           2.07886416972545    0.00006113742863   -2.09101670547339
O          -0.72599948087581    1.99136932707970    1.33800748809635
H          -0.57197669823551    1.96276917890641    0.38101716584821
H          -1.67012040089038    1.87094953567529    1.46008050039159
O           0.86804000427706    0.02104541902083    2.34838641133617
H           0.36094900339653    0.84801293950613    2.24937141132540
H           1.24912590309458   -0.13225756658723    1.47053791044379
O          -0.84912327714798   -1.83936219580519    1.82846405206983
H          -0.30357861340989   -2.55809722133329    1.49883845935933
H          -0.21115889249563   -1.16318234920705    2.21808918717006
H          -1.32287208897062   -1.08687184622915    0.69536454788107
