    19
        -40.91117818
S           1.30801902454595   -1.21249606545200    0.18155856360706
O           1.57065135386489   -1.78770051208470   -1.08641474938947
O           1.59842938885263    0.18733403164776    0.35675377664421
O          -0.14005132237603   -1.47905555117158    0.60919690143735
O           2.12514221533309   -1.98953679395186    1.27629760735895
H           2.16091270685347   -1.46180272708618    2.07292903841770
O          -0.39186354557100    1.02201995950407    1.99292955635703
H           0.41061682984294    0.86528630177142    1.46535833976905
H          -0.87856446265675    0.19283728440406    1.97396806392009
O          -1.57144588735201    2.48255141509114    0.03912273090815
H          -1.24156287540961    2.04725245235786    0.85286815556826
H          -1.33621110632367    3.40883430748269    0.10965347958465
O          -0.19717185061743    0.91814984603748   -1.66898456757815
H           0.60380193223013    0.83228544196240   -1.13684479092645
H          -0.78538413098899    1.53167766972014   -1.17439850240586
O          -1.14687973834578   -1.48890018257752   -1.64108155335545
H          -0.46879588598503   -1.98875820166914   -2.11065407388279
H          -0.69583713423462   -1.55588601073040   -0.30632090383610
H          -0.92380552144113   -0.52409265531092   -1.80593705231458
