    19
        -40.91286373
S          -0.14301841232445    0.56447948073692    0.08038763075335
O          -1.17484453705761    0.96909637339436    1.15282965798598
O          -0.15314342866594   -0.86705735686738   -0.08988403936638
O          -0.33843951728087    1.32671017581527   -1.11349077303861
O           1.18784553352256    0.97516960026325    0.73799220441280
H           1.45229817915364    0.18154430278431    1.32749187610701
O          -2.08319842561679   -0.52398292127733   -2.03451321705979
H          -1.49143124632137    0.24002608548656   -2.11834322346240
H          -1.55025806435362   -1.18084979410953   -1.56914366981589
O           3.66288960997010   -0.46911954466744   -0.05551732643204
H           3.06974366118425    0.26916726210045   -0.23053114060559
H           4.53110674109155   -0.09851486146641    0.11632901139000
O           1.76538130770040   -1.26277965552774    1.76187577498562
H           2.57722444291527   -1.36201415940010    1.23453372027772
H           1.04312361523243   -1.60905532225622    1.21318786171183
O          -3.40698339918898    0.56626319994268   -0.02830164189256
H          -3.07673034699901    0.07294986146998   -0.82288909965307
H          -2.10713076792979    0.81175589287229    0.79099405500027
H          -3.76443495509894    1.39621137069524   -0.35300766127166
