    19
        -40.91439977
S           1.32736359371866   -0.82281269303326   -0.63123551694222
O           2.22151896736018    0.14712813775242   -1.19150310474117
O           1.10882399937038   -0.64819363128218    0.81765659927982
O           0.04472962674389   -0.96233216338671   -1.30790120173135
O           2.03093661368116   -2.23981349955001   -0.77893946653063
H           2.96990043409196   -2.07459209345924   -0.76215481401291
O           0.20916965188433    1.86157884626763   -1.68796213549757
H           1.08982222501480    1.45172064770054   -1.64608427335497
H          -0.36046857813355    1.18165216157074   -2.05922571328123
O          -0.17804294491259    1.76890359423668    0.95795961023516
H           0.46164897993002    1.04661977155611    1.06909454082062
H          -0.09106639281929    2.04078615766559    0.01786095464558
O          -2.40429185744724    0.53396111515019    1.28287641585290
H          -2.69168136163384    0.65635082651906    2.18985235083695
H          -1.60145940397656    1.13698691508738    1.14943176676985
O          -1.17015272558207   -1.57234691167332    0.75922826768122
H          -0.21599956925828   -1.28293803457625    1.06226001969870
H          -1.79540715620486   -0.74104779789609    0.99759964254035
H          -0.95534408182787   -1.48161133865290   -0.23881395227856
