    19
        -40.91320040
S          -0.61424847916024    0.91910379635622   -0.47791737287193
O          -1.01853423263855   -0.14897343120340    0.40446510749204
O           0.66438141142761    1.47533933009923   -0.13672449226411
O          -0.67032461803072    0.46043692374047   -1.92862916007561
O          -1.70139277071828    2.02375035857463   -0.48561202075595
H          -1.61630422269913    2.46538633591535    0.38698952056997
O           1.40951648870253   -0.67737989114006    1.60880643849693
H           1.97098510746018   -0.05077205589878    1.14499037254088
H           0.50520906826803   -0.42172669853931    1.37452082157853
O           0.20881357974976   -2.62063921298883    0.04046299318221
H          -0.54576457081127   -2.04186771063786    0.22365862398422
H           0.88534261834949   -2.33060409418795    0.67505371131505
O          -0.72544301825100    2.60391421044482    1.88485771147772
H          -0.82635866082557    1.92705270662660    2.55910366760170
H           0.10872139745408    2.42331535260785    1.42539363354854
O           0.82342978067922   -1.53927136944172   -2.24352284829752
H          -0.02146359792827   -0.32813277946527   -2.10628224936633
H           0.66493247949465   -2.04529589382564   -1.39227250630616
H           0.49850224023528   -2.09363587708720   -2.95734195187198
