    19
        -40.92008983
S          -0.22335838722291    0.72020394506079    0.29203017829219
O           0.00018325088936    0.52465863709132   -1.11340086335375
O          -0.01077359342958   -0.46998200673179    1.08815812219667
O           0.66669429218385    1.85002581546106    0.81744934537729
O          -1.64016326078119    1.24828348835711    0.53394585107414
H          -2.23011515916709    0.84879453358070   -0.21004088513475
O          -1.99520967388600   -2.06829830822034    0.18315069468506
H          -1.20533952626585   -1.62543189252581    0.54314265603902
H          -2.50974549818125   -2.36260444240475    0.93765191087968
O          -2.71329410363299   -0.01289169015654   -1.36445947350429
H          -2.63706663556402   -0.89453812309239   -0.93625439328566
H          -1.92539525028993    0.07315368121550   -1.91638803528028
O           2.64297711933755   -0.86536975901255    0.75554581100044
H           1.67918113068600   -0.87717648963024    0.89948637472002
H           3.04836279718494   -0.92091892704603    1.62337926086945
O           2.61538306070007    1.36992426414111   -0.70568018456245
H           1.52829779638704    1.82600778213537    0.25394840507501
H           2.87599142609467    0.53633572214276   -0.25415186207846
H           2.03339020496659    1.09982374965493   -1.42751290301868
