    19
        -40.92267741
S           0.76916506582391    0.15147337050076   -0.72036030036943
O           1.75936573178664   -0.14415797059415    0.30446759677112
O          -0.25688327972199   -0.92029551477564   -0.75018136005291
O           0.14761136759560    1.44490482278790   -0.54806390079207
O           1.46028496128883    0.12809431914101   -2.11218778519264
H           1.88131943435690   -0.75987341040386   -2.13443176340833
O           2.18023852471048   -2.26250811949309   -1.30665628711175
H           1.27909019065576   -2.59078811546811   -1.22319523949410
H           2.34485200036829   -1.74897269946793   -0.49976278420684
O          -2.39021429962710    1.74191857416424   -0.02368285235894
H          -1.43555021393894    1.80439508543836   -0.27520808985056
H          -2.88546572934116    1.72712191926140   -0.84496273650488
O          -1.77549029915249   -0.44144347271266    1.11874355867520
H          -2.21693101335704    0.40441106029470    0.74297957154369
H          -1.16789100277284   -0.77351604426204    0.28228437170282
O           0.23052959873203    0.55758954047467    2.31394024653588
H           0.93044744371050    0.26075853636413    1.68438240850287
H           0.19829938693985    1.51417550381125    2.22529448727805
H          -1.05277786807868   -0.09328739510444    1.76660083826246
