    19
        -40.91505815
S          -0.97459133352743    0.91870436473745    0.66730258149417
O          -1.13452402137328   -0.60937890238607    0.49238250917479
O           0.27984092441203    1.32054267283347    0.06420381976941
O          -2.12965216314142    1.59146497690802    0.19902825701532
O          -0.82449218037639    1.04668201064791    2.20366580102667
H           0.06094430270234    0.67637402296946    2.41768057460007
O           1.37930912191059   -1.77392245492144   -0.15523713576633
H           1.90103631882102   -1.40815934586963    0.56533316691483
H           0.46648948992658   -1.76538853182263    0.15573678148078
O           1.71182110683058    0.28534840846996    1.98273610580248
H           2.38676141326383    0.84503261438998    2.37360838612513
H           1.44654116822601    0.70353517316139    1.13693567236945
O           0.61069995372198   -0.10767302678981   -2.24575971701639
H           0.64233364897619    0.61751827553540   -1.60295799812139
H           1.04348117198053   -0.85153853589915   -1.79197198784972
O          -1.92680576638092   -0.57957912908798   -1.86868216826320
H          -1.54950035667944   -0.73629439988110   -0.45802472960077
H          -2.38130832212850    0.26799527016686   -1.89679393617221
H          -1.00838448716214   -0.44126347318932   -2.23918598306837
