    19
        -40.92217275
S           0.63220447507035   -0.20747691534660   -1.21020319646091
O           1.08213219694226    0.64988499641781   -0.12779896579928
O           1.52030882718928   -1.27510355505706   -1.57077272263340
O          -0.74799889959868   -0.65552307363252   -0.98448303784238
O           0.54328039516860    0.76575749733083   -2.47670669245564
H           0.79358148420045    0.22092124174119   -3.21701771593609
O          -0.72983466887788    2.53077326588075   -0.01230425749099
H          -0.98215245576800    2.75448104041824   -0.91023861782128
H           0.09306342955975    1.99469328424180   -0.08591731933825
O           0.67767094539114   -2.41623001706212    0.71575430944998
H           1.14856519378047   -2.10932576699195   -0.07913631907375
H          -0.13180203944048   -2.81973112721321    0.39369585894441
O           0.33101059532048   -0.27417899422715    2.27465923679798
H           0.90971426833979    0.24423926090900    1.68787565316013
H           0.46604576782923   -1.19547006609223    1.96040600650202
O          -1.72030485828687    0.40926274342339    1.02533711045858
H          -1.42824309652261   -0.11218994224595    0.15471675719463
H          -0.94186390133831    0.12846181929556    1.70313028711508
H          -1.51537764896125    1.36675428821008    0.75900365522238
