    19
        -40.91373484
S           0.46390839014885    1.39817532508823    0.78168810516974
O          -0.70333162451778    0.73638814749532    1.30056890704645
O           1.48892250103303    0.55205090349847    0.26543335691504
O           0.07502530452248    2.46595237827575   -0.22921152083229
O           1.07717349966070    2.24888831319875    1.95062562783127
H           0.37201251653148    2.74139450245813    2.36780726084338
O           0.58660041344721   -1.69028160145254    1.57195173091153
H          -0.08946247957045   -1.02317156985547    1.75220010037844
H           1.30421265008810   -1.19166197185699    1.16032081535011
O          -0.48684332618613   -2.79658697896095   -0.63591616983471
H          -1.06514092062138   -3.52596181219293   -0.40798507818470
H          -0.02870599209905   -2.53278068453653    0.19230017861519
O          -1.48545936325738   -0.35676976244885   -1.14404042153402
H          -1.17501776588742   -1.28763591655199   -1.07943451631195
H          -1.46544453362732   -0.00535968328476   -0.24388557282109
O           0.30537613340938    1.11455151252879   -2.28728346274023
H           1.11297936046887    0.63111657149629   -2.08047789207495
H          -0.45275572991069    0.50319214976810   -2.04288792143454
H           0.16595097633362    2.01850018732745   -1.19177352734739
