    19
        -40.92078070
S           0.66210703726857   -0.80287761768639    0.05485990461140
O           0.66604932104767    0.09649144848210   -1.08036657552762
O           1.86729346669857   -0.81280999542735    0.81213116110569
O          -0.53343052712887   -0.39815135637916    0.96923041651390
O           0.27496279284083   -2.20698707299324   -0.39035189301246
H          -0.72648727106343   -2.20318209582807   -0.61532503407266
O           1.82166393509892    2.13778282793097    0.24363672714513
H           2.76051730615629    1.93751731421858    0.23194801246680
H           1.41200201993605    1.50860100149261   -0.37635244062357
O          -1.73403805465060    0.26761105526235   -2.23253047394119
H          -0.79652387737253    0.25857781067207   -1.95596874522458
H          -2.04778929392831    1.16449466558884   -2.10382088998894
O          -2.20816061317786   -1.90792289775114   -0.78822633467545
H          -2.20020577317963   -1.16965513058702   -1.44079191464765
H          -2.44307315802205   -1.51736950520196    0.05915022617654
O           0.76995707391295    1.15158745336869    2.48688643262493
H           1.47607473483594    0.53015636405366    2.69486269725722
H           1.13120977956356    1.72088248400613    1.76680097740310
H          -0.15212890883733    0.24525322677559    1.66422776640158
