    19
        -40.92343658
S           0.08868188643245    1.66851827479784   -0.22922760662727
O           1.38464722058015    1.29608858200833   -0.75525481619427
O          -0.98357971513514    0.83040495063813   -0.74193949276431
O           0.08637025677252    1.71589089447041    1.23365563512266
O          -0.22317632927900    3.13299944453813   -0.71919825484046
H           0.49417178883873    3.63636351232286   -0.34692851131670
O           1.74589477670725   -1.14324340762096    0.11856867251919
H           1.84457966616608   -0.21862867396552   -0.21197140101261
H           1.15098740778694   -1.56202805485108   -0.53821615267761
O          -0.23498259452796   -1.54937148463842   -1.64974812208259
H          -0.51811211259815   -0.62835999318088   -1.45640241813267
H          -0.01469999514030   -1.57197907958001   -2.58195698313149
O          -1.90670392066316   -1.19297276723705    0.73229038545299
H          -1.83645811896210   -0.35583141811990    0.22768630364826
H          -1.73288148046758   -1.88863363922224    0.08858794480333
O           0.21687070535498   -0.63636251204042    2.01997401205560
H           0.17522804618689    0.39392831163873    1.84564696110648
H          -0.68420734090980   -0.97209457152604    1.65699348635519
H           0.94736983285884   -0.95468835843210    1.30744032772026
