    19
        -40.91241718
S          -1.18740003771608   -0.83327380055786    0.26368114695457
O          -1.72385599398221    0.50570570278815    0.15128832073414
O          -0.81875534702163   -1.41026688262687   -1.01790123166640
O          -0.08423641619462   -0.89395896510974    1.22373008105993
O          -2.33804356577608   -1.73045579781216    0.86627694436483
H          -1.95766802689855   -2.60260936996124    0.92850330441601
O          -0.32435542301722    2.32976175183251    1.36494811078897
H          -0.50905298111300    2.28290861578229    2.30511664184429
H          -0.97756627519778    1.72652590135005    0.92382495616691
O           0.38992034810522    0.82711831720878   -1.76770929906711
H          -0.07276481035392   -0.03447508666299   -1.68454632851607
H          -0.30045915398602    1.49322699252087   -1.70352470288647
O           1.91035076541144   -1.61547534471475   -0.91085050682459
H           2.18752642986377   -1.54273390688343   -1.82584450154752
H           0.95249808176970   -1.75516375568774   -0.92621730318964
O           1.53950671886561    0.84607986046633    0.51740934284882
H           1.31468367913296    0.83963519470868   -0.48299641240330
H           0.94231778885357    1.58663422504629    0.91668278110018
H           1.05735422067829   -0.01918367046879    0.85812865689639
