    19
        -40.92136379
S           1.01159630881531    0.60923237442980    0.72796670586542
O           0.84049819490690    0.95180939053929    2.11802942711332
O           0.99548254005977   -0.84755951456530    0.50564278432832
O           0.09309438703203    1.27614605699235   -0.16700166160603
O           2.47109147538611    1.07293525309752    0.30899131212023
H           2.97683086869873    1.00875448128621    1.11422535769910
O          -1.44363488256770   -1.40884632045325    0.33516381488324
H          -0.42384268719467   -1.38547403908660    0.45598112914718
H          -1.54670847055879   -0.95772271374501   -0.65608421801238
O           1.18489027533644   -0.91895134052664   -2.17136795843434
H           1.25616162535047   -1.00199985795717   -1.20169647007920
H           1.78386469656740   -0.21349891074757   -2.42192037214421
O          -1.34755464625668   -0.17135274222075   -1.80967030940239
H          -0.93664335862239    0.59490202896596   -1.34804900027370
H          -0.57705708253295   -0.59210496945267   -2.25113547264259
O          -1.75887406414637    0.58335609019715    1.89761430419115
H          -2.00396540399718    1.36346331990391    1.39219422250907
H          -1.75095127853412   -0.69629768957561    1.00368594155573
H          -0.82427849769896    0.73320912295103    2.16743046317525
