    19
        -40.92079118
S          -0.67205286838154   -0.99780015792848    0.87207949367311
O          -1.93712501691966   -1.35842810082338    0.28575440953174
O           0.47498746010332   -1.21936960484906    0.00242593294886
O          -0.66999691872679    0.36398898623791    1.40987969451834
O          -0.43944587380134   -1.95483885249315    2.11092167506568
H          -1.25649500144364   -1.89040791233372    2.59535833089380
O          -2.27296991736880    0.53327480163809   -1.52875557551208
H          -2.24233847668633   -0.14247825006844   -0.81713695332373
H          -2.90746878862064    0.21377371211449   -2.17307882178369
O           0.33929462049190    0.71054419440806   -1.83096620906932
H          -0.64023666665801    0.80200022060782   -1.89807139914474
H           0.46329339495089   -0.16018372761845   -1.40148054788930
O           2.69013081794318   -0.01823944571978    0.73057249114470
H           1.93627108549884   -0.63127582320649    0.56095101288971
H           3.37620887476439   -0.24767971302773    0.10053641079175
O           0.98012982897677    1.83659039334835    0.29780873632292
H           0.73361825590676    1.52797979241077   -0.69341670440957
H           0.23584060019948    1.33681586232023    0.85155519451978
H           1.80835459973473    1.29573362507456    0.52506282881836
