    19
        -40.92078046
S          -0.95887344134317   -0.37477727362542   -0.17787925520372
O           0.04177886964290   -1.17174718672583    0.50130789943390
O          -0.35547854544538    1.04507466862814   -0.39960037319984
O          -1.40490662113673   -0.90885072985520   -1.41959874277957
O          -2.12780327792167   -0.09330074751656    0.75703097635557
H          -1.81216427403662    0.58171361766048    1.46309316755776
O           1.03436831869003    0.07496387565924    2.64051684474385
H           1.95652925792300    0.26201153587764    2.45575345219744
H           0.72424673938738   -0.52107662339453    1.93041816621498
O           1.49829852971972   -1.65682872845676   -1.71206161247876
H           1.05991468164618   -2.39566768982063   -2.14049942157186
H           1.08979324647829   -1.58478318799832   -0.83116045151801
O          -1.09203059450513    1.62599171292871    2.30111182320578
H          -0.76715101825058    2.24060071631433    1.63587630611658
H          -0.30563895784302    1.12906943330376    2.62667465549517
O           0.54672060130420    0.61959885101252   -2.72493812422152
H          -0.26982736158957    0.26197143550067   -3.09043744748960
H           0.05523384463889    1.03479173904555   -1.33446904979832
H           1.08698999262360   -0.16875543855150   -2.48113882305867
