    19
        -40.91892667
S           0.70224297688485    1.16317572054735    0.45865285024219
O           1.50961884257601    1.62050756645286   -0.65178421394565
O          -0.72061514155275    1.21883989157665    0.23229331135924
O           1.11433308904384   -0.18162047055727    0.90269454811432
O           1.00841283653630    2.12000336771446    1.67993127162966
H           1.94828085075171    2.26947419088677    1.63532357496431
O          -1.35450205664717   -0.47265972890564    2.24031770508439
H          -1.21268305289967    0.35551305215083    1.75195734217221
H          -0.47025274561592   -0.81465737025764    2.40173778063062
O           0.82498802589430    0.00672452896297   -2.56894975108318
H           1.58695018461906   -0.10964530760901   -3.14071282274219
H           1.06621126482311    0.72023051254889   -1.92410821001887
O          -2.16940156223808   -1.07114642400787   -0.23293207610228
H          -2.06851205921012   -0.12473647652180   -0.42234672159275
H          -2.12767810103535   -1.10829574799555    0.74952088199642
O           0.17805322916317   -1.71064450123116   -0.81169075099820
H          -0.86170230292469   -1.55990959735068   -0.62965584163457
H           0.40867131760524   -1.14941966322505   -1.63623116111392
H           0.63758439434660   -1.17173357346409   -0.03401770670791
