    19
        -40.92135399
S           0.96530769598258    1.13339471346549   -0.46895679342115
O           0.73657418663419    1.60667611760828    0.89694114622994
O           1.94157223752228    0.06738669510180   -0.51716378339732
O          -0.28464615707585    0.79762019833240   -1.13234479411541
O           1.56655339166862    2.35483755937065   -1.26707391200929
H           2.42433055355567    2.46587651946350   -0.86884550599397
O          -2.37849545388741    0.45634975460768    0.44838101653305
H          -2.81281644996883    1.29788648334853    0.59967240531926
H          -1.70982020657909    0.60855146284249   -0.25750429305719
O           0.73767368392506   -1.88544344652238    0.74972398607315
H           1.39327892777351   -1.26291463262045    0.35564318417455
H           0.17061926630714   -2.12796474910668   -0.02073506554302
O          -0.49253096083376   -1.84565196574326   -1.58960862731058
H           0.08369361209389   -2.09560369094452   -2.31400157986474
H          -0.48104012737288   -0.86919582086448   -1.55603389003682
O          -0.51510607990453   -0.20211689264359    2.06277963763773
H          -1.38943381830423   -0.06233431851144    1.56026753226155
H          -0.00767211044104   -1.04210757424164    1.58374453839069
H           0.05195781891351    0.60475357702594    1.73511479813280
