    19
        -40.92079060
S          -0.62302945163784   -0.80342549456456    1.08209931070318
O          -1.29737101850638   -0.91229595268328   -0.21285823173762
O           0.79099271749909   -0.49876198006904    0.91195182559867
O          -1.31237282059511    0.07418147860870    1.99246389455808
O          -0.65738895161902   -2.25407290882452    1.71435776438832
H          -1.57232605576031   -2.36993400889841    1.95080307322677
O           0.09954580876542   -0.12451223391489   -2.09817223625524
H           0.86967452272213   -0.77255497469770   -1.96778755195072
H          -0.60623612437738   -0.48276879652193   -1.40214746487260
O          -1.41281013155156    2.32464073236343    0.60875460866124
H          -1.47959021244368    1.49643828994067    1.13148100218663
H          -1.56173030840129    3.04301328759220    1.22661599484578
O           1.94324882304766   -1.62936474655711   -1.15551974877446
H           2.86966522693576   -1.37996627458427   -1.15649455075752
H           1.58293446465611   -1.36934686413307   -0.27490969033665
O           0.85514157734301    1.70607664255919   -0.58483915766279
H           1.05391704969386    1.04343576384179    0.10742126785689
H           0.42560699594244    0.76658742730525   -1.61115923394303
H           0.03212789830516    2.14263062322828   -0.26206086575398
