    19
        -40.91226858
S           0.82503352997936   -0.98133847056255   -1.19404577705752
O          -0.29240826010040   -1.15387428691290   -2.06536731425716
O           1.01530499448823    0.51681834175189   -0.89237175407627
O           0.88074985711330   -1.72242203140788    0.01949186924761
O           2.11942981715448   -1.31088440148637   -2.03250212127604
H           1.89133082228864   -1.15477941209749   -2.94615024117579
O          -1.09052373235816    2.33447471219503   -0.17133210996541
H          -0.68235094047578    2.35001945549059    0.69968560917513
H          -0.38285770600723    2.14683221578709   -0.79530975854203
O          -2.06266084624657   -0.24727760872591   -0.14630556139348
H          -1.95605808602529    0.71833459691243   -0.21979655300292
H          -1.64940650982945   -0.63487233920863   -0.92865035043285
O          -0.77117666499566   -0.94783335139467    2.06365581496626
H          -0.24796738737861   -1.64824544230573    1.65187160583292
H          -1.45306187907511   -0.73171933199999    1.38651527427345
O           0.90819128932725    0.91435918690226    1.57428751320910
H           1.01115088415993    0.68375299735145    0.14215094282873
H           0.20850360152201    0.22613130489023    1.86350488690074
H           1.72877723648160    0.64252387482081    1.99066804474238
