    19
        -40.91505820
S           0.78623867451749   -1.26853312275087   -0.12192936368035
O           1.29925723945921   -0.00417475982558    0.36500176954772
O          -0.70047349390235   -1.07884601161691   -0.50302521711071
O           1.49966764691893   -1.85324133107535   -1.19665556497619
O           0.68225208597507   -2.23424376559350    1.08462199020148
H           0.30190270669957   -1.70331828057608    1.81985994160908
O           0.01495181649191   -0.17793045454833    2.62883366524782
H           0.52321189566122   -0.03338082342528    3.43027315826038
H           0.55030828193558    0.16566181689670    1.88320724775266
O          -1.70173693568739    1.30480023428139    0.68450161549269
H          -1.44313408458851    1.13995474888725    1.59618725274452
H          -1.75436665332760    0.43598347977015    0.26908917781648
O           0.24786320871263    1.99922116123503   -1.17373215557648
H           0.86711745196884    1.49091663430682   -0.62759094555781
H          -0.54797899402463    2.08431046054422   -0.62057540413995
O          -0.32669449842403   -0.01733518630175   -2.72500898001411
H          -0.11529596196528    0.87746066282442   -2.33165625359043
H           0.50599131544134   -0.42419038231056   -2.98362876766426
H          -0.68908170174914   -0.70311509082793   -1.47777316639352
