    19
        -40.90970457
S           1.06551312780554    0.74516869345628    0.12612943047368
O          -0.21731219438071    0.68066858189662    0.88377150174806
O           1.15652335324754   -0.39755494006981   -0.76623119587546
O           1.15901080234305    2.00823950148087   -0.56596714590494
O           2.20114012260758    0.64670938559272    1.18610005011703
H           1.97444135596888   -0.13973780577915    1.72537522401763
O          -0.99919811801373   -2.00711251210938   -0.38331331432761
H          -0.98741617587062   -2.58803442587101    0.37798481489838
H          -0.12184783108687   -1.58651932996681   -0.41329184994660
O          -0.97095405538101   -0.09768760382304   -2.33967177654736
H          -1.43451815048924   -0.85223833999687   -1.94101114006694
H          -0.04249539697597   -0.21812356211314   -2.03565031270594
O           0.75623727021037   -1.21372232082115    2.43296699561102
H           0.13713572127751   -0.63335444709632    1.94815194109255
H           0.59476421672110   -1.06779057928877    3.36789930882728
O          -1.35576535842561    1.90234042802466   -0.91839060383240
H          -1.12557019139529    1.39794830577526   -0.02215956736890
H          -0.46137833580562    2.34028862589571   -1.02937179202202
H          -1.32831016235104    1.08051233479090   -1.63332058819805
