    19
        -40.92161573
S           0.35589588259369    0.63201768610844    0.78273887205177
O          -0.57998790485684    1.66455149808791    0.40195835155912
O          -0.41017864427571   -0.67608517442567    0.97942058523361
O           1.45650675235778    0.45218869629159   -0.11486761323663
O           0.89343408291488    0.92437487530526    2.19898880040364
H           0.07923492970993    1.09136201061886    2.73793695120187
O           1.91408839378505   -1.86512919497540   -1.41947474854516
H           2.65429631113850   -1.80359326200069   -2.02519277326543
H           1.90921590853786   -1.04359423013809   -0.89482368877480
O          -0.59284669960976    0.80966356033221   -2.16180687744400
H           0.32875514450983    0.97778657218283   -2.37413112446805
H          -0.75706846691685    1.28932871525588   -1.33250231216548
O          -1.59671991748912    1.25435040760949    2.86658975689956
H          -1.61595539572767    1.65597457116219    1.98301563429068
H          -1.99498853483330    0.38351603579762    2.77998812753360
O          -0.75052323691434   -1.69019410679963   -1.25250319356794
H           0.15434931951557   -2.01698711702715   -1.43538350825711
H          -0.60637339449206   -1.18652033096453    0.04624450317224
H          -0.84113450994734   -0.85301123241835   -1.76619575262048
