    19
        -40.92019825
S           0.49387587584615    0.85951551480988    0.46919933963996
O           1.75556452119247    0.89180124362256    1.13585341387963
O           0.64817507976189    0.24393168070744   -0.95074391465576
O          -0.53997562598883    0.11089843233344    1.14500155641840
O           0.03518930914852    2.28159712975378    0.17522868250263
H          -0.80092220998146    2.26947143899623   -0.41251093641813
O          -2.10151307141748    2.13049841738281   -1.19711262134093
H          -2.81015360561547    2.59690955324572   -0.74709469070593
H          -2.31491941945954    1.16511121537989   -1.13398629471008
O           2.85708523519236   -1.55934864837112    1.13918832025151
H           3.73984973421678   -1.49365432031104    0.77021366417912
H           2.55354152737203   -0.64320795670634    1.28969239506566
O          -2.40024260783934   -0.43162073477168   -0.66497521934354
H          -1.97338047908195   -1.07995735618951   -1.22968638055585
H          -1.82315629254168   -0.32077159096290    0.11856204766842
O           0.57557806044525   -2.14870287678688   -0.08138858955092
H           1.47163675411682   -2.18086875259383    0.32381727108281
H          -0.01910019831607   -1.93676387401761    0.64834395093128
H           0.65286740281565   -0.75483851537912   -0.79760199430435
