    19
        -40.92003358
S           0.84433129974040   -0.16864394545566   -0.17911025176816
O          -0.31520262833590   -0.98813846161984   -0.44077901273603
O           0.51397640068960    1.09998642792827    0.41944117962415
O           1.82996260711422   -0.94043846420217    0.70136836681984
O           1.65892728491145    0.03600710329869   -1.45813714783551
H           1.11039387769204    0.53111420761056   -2.16368886485815
O          -1.77199634735431    1.12542299794767   -1.25349243112401
H          -1.44595917132300    1.72245266458638   -0.57240235969874
H          -1.51299564913506    0.23716691001930   -0.95163177249670
O          -0.50839010277295    0.31309160273387    2.76773577982982
H          -0.19144872745336    0.72560250014492    1.94110110780141
H          -0.05537804082838    0.76082480423116    3.48521361394068
O           0.08855246329538    1.16247913710401   -3.11179556130865
H          -0.16653409647003    0.54187576355572   -3.79887684912281
H          -0.70156399085923    1.27220037366180   -2.52027549361793
O           0.09102148550309   -2.18612383667313    2.04302533557289
H          -0.49201500157387   -2.30809132422175    1.28396224414204
H           1.26646448166477   -1.55245953982407    1.30298988900355
H          -0.24214614442962   -1.38432891094042    2.50535225701606
