    19
        -40.92179452
S          -0.85618272970433    0.41201442331812   -0.15428333393908
O           0.50679186787890    0.91374477401123   -0.70666895974178
O          -1.76743475691212    0.18707479443961   -1.22473779582066
O          -0.60255375334810   -0.74731557773188    0.67769112838489
O          -1.30524423239284    1.58042320424975    0.71654824598681
H          -0.48843197703547    1.89639411887483    1.25616492654621
O           0.86182186149753    2.16638786214348    1.87973315561009
H           1.44272516084434    2.26142316310744    1.11905846469775
H           1.08971084296376    1.29370703280146    2.28769400345263
O          -0.55165635410113   -2.43692171044940   -1.43533480724191
H          -1.47899622729215   -2.42370035389812   -1.68604682983368
H          -0.51662549948360   -2.01337297890470   -0.56086647373149
O           1.17942553406369   -0.34603818964675    2.61294886920694
H           0.56978134868888   -0.63184932548314    1.90193426975132
H           0.82212824885965   -0.69407958207182    3.43212585334595
O           0.50104396612726   -0.44151880153256   -2.84673239094328
H           0.25394627850533   -1.30719419783887   -2.43945446395071
H          -0.31080903693509   -0.10158847923738   -3.23572624467381
H           0.65055943779817    0.43240983386114   -1.59404761710590
