    19
        -40.91836424
S           1.06232356045401    0.20648891112457    0.46938872698652
O           0.40644601206655    0.98126388557236    1.46723279897332
O           0.53010502975047   -1.12231847237577    0.26270978190290
O           1.07784682330283    0.92474845137884   -0.89491808795030
O           2.56651739571891    0.10798195093022    0.79011544685999
H           2.92642233281040   -0.52544528781560    0.11894809810458
O          -2.17413040111049    0.57978320584129    2.25913104559027
H          -1.27453007675097    0.88950494999615    2.05755093201191
H          -2.12330210095933    0.13934894944971    3.10921602623277
O           2.74650519074391   -1.60078076638668   -1.15876956786207
H           2.61030354574735   -1.12877080921539   -1.98428132326076
H           1.86608490179273   -1.81833487302566   -0.80785490902128
O          -2.13485996884476   -0.64741647507409   -0.14657926933384
H          -2.39421608627775   -0.25340626858325    0.71052281298529
H          -1.26543384738979   -1.04855406576664    0.01320159279410
O          -1.30720163995131    1.34905738463181   -1.56063693853449
H          -1.48055409014049    1.16598174145945   -2.48700248714579
H          -1.75655995546617    0.61776404459703   -1.03379827398849
H           0.11823339452661    1.18310352332825   -1.18417638543327
