    19
        -40.92158926
S           0.00881347251664    1.28245543340057    0.73102185963558
O          -0.10242704437966    2.50885638186619   -0.01051723457197
O          -1.11719923056616    0.37156653632782    0.59186154627550
O           1.27452067536189    0.58386587429227    0.46953055023755
O           0.03318165577624    1.66902011096963    2.26767329572024
H           0.52871008865629    2.48177174774556    2.29699122966306
O          -0.79209667132380   -0.89258466098055   -1.73544716876116
H          -0.31157784454523   -0.16424298248704   -2.19580125907638
H          -1.24479731858304   -0.43445183062482   -1.00017169210385
O           0.62637248473920    1.27472192710155   -2.25538608824527
H           0.30342580871874    1.86829424993029   -1.54958775025933
H           1.56328977707982    1.15886028758974   -2.08064411094817
O          -0.80938791629008   -1.97324599637084    1.71520346456375
H          -1.02065568899167   -1.03826000199761    1.48316778696266
H          -1.62643076606547   -2.46894017269270    1.63119024556039
O           0.91880376153650   -1.78471980237999   -0.16060752817213
H           1.20837504260214   -0.81296620205857    0.13202765126360
H           0.33188024023079   -2.07938300371858    0.61382963080866
H           0.22719946351829   -1.55061787589812   -0.94433442854125
