    19
        -40.92343557
S           1.56032124823947    0.43014435449149    0.47555179580300
O           1.57319666931690   -0.95890458173562    0.88260541837465
O           1.79328418531016    0.57998811167732   -0.96153629549874
O           0.35556778724674    1.12575064159889    0.89970032674077
O           2.76217601957581    1.14863261177281    1.19738772895694
H           3.51561987876317    0.65068560190067    0.89587183252832
O          -1.65057870245373    1.48318208773240   -0.82409172376682
H          -0.91025592515825    1.63974343680857   -0.20165810725091
H          -2.32684287413499    1.03793421003214   -0.30164587257056
O          -0.47570298756431   -2.00020349066618   -0.36715923431670
H          -1.14923483877529   -1.63325891967224    0.24302466372104
H           0.37845300517474   -1.82677347471790    0.09585087003638
O          -1.74116195241479   -0.42291840430753    1.40124204861276
H          -0.94811382906835    0.15623305177804    1.36276606138602
H          -1.81182439775722   -0.72075025043138    2.30917272936630
O          -0.26121086891306   -0.22418117036390   -2.10196608512677
H          -0.91985272421457    0.48487405650998   -1.75586676347483
H           0.66570366688292    0.12936849419923   -1.77127739789383
H          -0.40954337001809   -1.07954636658005   -1.47797199556405
