    19
        -40.90959192
S           0.57137846463123   -0.50705898506422    0.42486232989507
O          -0.67280091824534    0.35557122396285    0.03584738740862
O           0.85896391566621   -0.28613583828834    1.80509578047591
O           0.37234945910656   -1.86324943576837    0.01513143545516
O           1.64966106026970    0.11234175699646   -0.49076011191220
H           1.53012407519548    1.11737638391237   -0.44444054535429
O           0.98862327870386    2.57001672600119   -0.70519442613940
H           1.02641604180504    2.47653980174650   -1.67673185159068
H           0.06427885437034    2.45999537699318   -0.45833799497608
O          -1.75767303620847   -2.74308357577408    1.39863048699181
H          -0.92163788813773   -2.58931336637991    0.91862042112689
H          -2.34142903978330   -3.19674906233698    0.78753002548659
O           1.32819032924478    1.36408268051251   -3.11549413191208
H           2.13414631467773    1.43861905463809   -3.63064381956580
H           1.40036870086313    0.55348524924137   -2.59790895945609
O          -1.86954614816234   -0.19669254191682    2.18706403863968
H          -1.29995448570941    0.23796536569646    0.83307573164824
H          -2.02738062412512   -1.15622251912890    2.04244463339268
H          -1.03407836416069   -0.14748830503536    2.67120956040759
