    19
        -40.91799428
S          -0.05962837521510    0.81486438660786   -0.59599538258660
O          -0.29064490742273    0.96896056442045    0.81694044094251
O          -1.11010277818286    1.25261263169508   -1.45695769554260
O           1.26226077350963    1.46528643126229   -0.99348190360432
O           0.22521561194222   -0.70465731288504   -0.84933970757533
H          -0.51570404151404   -1.18343002631698   -0.32279265351581
O          -3.38102272982208   -0.05615715717080   -0.86849706996476
H          -2.64378724037069    0.46140075894485   -1.24440560405769
H          -4.03278795997922    0.58066866432025   -0.56884164414574
O          -1.67202986841518   -1.43536689910555    0.63534329330651
H          -2.45018727891427   -1.11796678460657    0.12300281104340
H          -1.45842415148988   -0.72716469610306    1.25665261948577
O           2.59594048569239   -1.37341222837756    0.43490908828856
H           1.78424038275556   -1.30831736045415   -0.09305039747404
H           3.28516669808973   -1.69312848660230   -0.15027061519914
O           2.40734418679313    1.17947142625059    1.22964480462004
H           1.53999670045530    1.19332298391723    1.65858143263444
H           2.65505792071360    0.23401617708893    1.14190639705944
H           1.85909655144193    1.44899691714145   -0.15334820377779
