    19
        -40.92021800
S           0.60276610160189   -0.60541902504035   -0.62596212959558
O           0.63825425590089    0.90103896411345   -0.80522796540581
O           0.79060035058365   -0.92539689448984    0.77820937635095
O          -0.56925999909720   -1.16518355029535   -1.22097736464245
O           1.84487286097248   -1.08976377837529   -1.40592154072870
H           2.61952542236205   -0.89925525764370   -0.82057037120080
O          -1.13864934749212    0.30877907191141    2.18369368465980
H          -0.73576516764403    0.62420027965698    2.99490633029352
H          -0.47908681540783   -0.26366075408256    1.74760518222957
O          -2.86183966191055    0.20329632373903   -1.52010745629157
H          -2.95500231939520    0.36822094888977   -2.46024732524377
H          -2.14430016799509   -0.45184093334084   -1.42666774575534
O           3.41657685179074   -0.72538471946415    0.63655311173464
H           2.52120740872760   -0.74669892325960    1.02484680701624
H           3.87429780372550   -1.51167318559749    0.94399674642940
O          -1.48257395340829    1.83616938257055    0.03729704666928
H          -2.14605134125139    1.36330321923707   -0.52337365266443
H          -1.51759139336113    1.39391334582410    0.91705494271150
H          -0.27798085870243    1.38535550563908   -0.45510767656864
