    19
        -40.91880958
S           0.25585673753715    1.11543295911093   -0.30424543621375
O          -0.79058467553670    0.73732764242656   -1.36090343988825
O          -0.18482119186493    0.62767066799827    0.98706984050442
O           1.55582750836057    0.69027643106519   -0.70312105691098
O           0.18554007265580    2.65422531068617   -0.30108339665377
H          -0.62998269132685    2.88672428923861    0.21437779168204
O           1.73707949894880   -2.03165743199189   -0.73036711441192
H           1.99562232812633   -1.09864790068169   -0.79747484511509
H           1.53093990530778   -2.16283538823089    0.21715138517134
O           0.64993311825004   -1.85654894296091    1.73738746795318
H           0.39947015567203   -0.92893609418027    1.58230841980986
H          -0.17071255590569   -2.34583830263592    1.82208938838096
O          -1.80158087545207    2.68592153773099    1.36544705331637
H          -1.64657222280186    3.14330813401460    2.19575707829249
H          -1.45283239162991    1.78101918592058    1.46867450506214
O          -0.60742835817059   -1.74302408779977   -1.76463002652256
H          -0.55286465354537   -1.91541610157708   -2.70735531539504
H           0.30383329351703   -1.95962624396645   -1.38498320268711
H          -0.77672302213602   -0.27937564417198   -1.53609910637418
