    19
        -40.91955067
S          -0.31356227428414   -0.12527656738541   -1.11729297660692
O          -1.08085367953223    1.05457126550021   -0.89404183668247
O           1.10653512912592    0.00112523282646   -0.88341212074897
O          -0.84463942527629   -1.29621898546887   -0.26941210198262
O          -0.54509966152720   -0.64390113586717   -2.55071934285095
H           0.06175583884166   -1.42379769165608   -2.61830032663871
O           1.78305217016552    1.77406979013293    1.06143755291642
H           1.63620455779227    1.09769645008876    0.37652700433071
H           2.23952831125208    2.49933023979190    0.63109104697506
O          -0.84531808294475    1.95703408792356    1.67218859871816
H           0.13124246506843    2.01068654106431    1.67087795254865
H          -1.09105383468627    1.92736080137652    0.73393445105609
O           1.23838363414608   -2.44457931140352   -1.98528730327798
H           0.84302800504551   -3.01317212099324   -1.31872921277901
H           1.61874382232150   -1.68677196540524   -1.51184808336681
O          -1.38502868896401   -0.53397521404692    2.05494586957055
H          -1.16065093773730    0.45088443414621    2.03486403771868
H          -2.33234017994486   -0.58992885776757    2.20095279935589
H          -1.05992717885992   -1.01513699287478    0.71222398175315
