    19
        -40.91359095
S           1.63857053937317    0.00843742496873   -1.11044432433338
O           1.43944095964729   -0.76588207919541    0.08595574986351
O           1.17973451698320   -0.60789988532855   -2.31564036131766
O           1.07499821544868    1.40581973200667   -0.95436112767515
O           3.17987224595895    0.28367195768247   -1.23510939290768
H           3.32373479871417    0.64671830852173   -2.10664708482949
O          -0.28052279420885   -0.99716571021674    2.22309962371819
H           0.51437118521698   -0.88683227335109    1.67886917405760
H          -0.82120588065069   -1.64393307135540    1.76079594747861
O          -1.54684898036863    1.35274991394550    2.00033039719292
H          -2.37103820633785    1.30384960762502    2.48681197973302
H          -1.03956530080388    0.53811634524809    2.21772212519149
O          -1.01096937147408   -1.51458558324807   -0.78019785105724
H          -0.90896954447046   -1.70502554962508   -1.71699215866820
H          -0.10152732231707   -1.44570058839671   -0.44313613084668
O          -1.34743094832688    1.14294228560909   -0.61490601080293
H          -0.01425767697673    1.36897343862741   -0.82881860985164
H          -1.42760043419284    0.16423375293052   -0.69440979788948
H          -1.48078600120251    1.35151198354218    0.34707785294251
