    19
        -40.91790587
S          -0.00187976652447   -1.02727100708879    0.00866703530446
O          -0.09856811113021   -0.67125705841729    1.48049810024727
O          -0.71509768417285   -0.06702587411156   -0.79406013837407
O           1.36855013486251   -1.22379509311659   -0.36791235697511
O          -0.75856047508219   -2.39074128556422   -0.05176489302541
H          -0.69016909384297   -2.66721710722279   -0.98960070466084
O          -0.18523891375549    2.49612573858147    0.00204921626190
H          -0.41628180280620    1.78524324968157   -0.61482020468997
H           0.73469559315510    2.30126459483716    0.26011589343197
O          -0.06307247064263   -2.15208080394891   -2.57260197891500
H          -0.45304040482185   -1.27211748199925   -2.61869739786479
H           0.85962983634538   -2.02198612427392   -2.32495476633400
O           2.09614827272399    1.17711030084712    0.70761139131835
H           2.19133331354271    0.96961976901767    1.63960020522479
H           2.03721660757286    0.32611176690970    0.24621089059553
O          -1.60970200501262    1.28867827161527    1.78883059060960
H          -2.43256990089243    1.10372765021379    1.32890866388519
H          -0.76761122828334    0.12518988689036    1.67703233706805
H          -1.09578190118101    1.92042060716613    1.19488812681365
