    19
        -40.92136385
S           0.30693824571529    0.51506891071275    1.25012789564954
O          -0.96014982615168    0.84437247088519    0.57398949383798
O           0.10215893408155   -0.25135888181003    2.45410180321078
O           1.24657304886999   -0.07361740511558    0.32250832891615
O           0.91648622829493    1.91482939671405    1.68644451202416
H           0.57641277322738    2.05337954404135    2.56583594241217
O          -0.01666600539178    2.09251135617048   -1.60710062562448
H           0.74277061743152    2.60298964571100   -1.32117786513710
H          -0.45808278273541    1.78647765467931   -0.79244709486101
O           0.49601733097946   -0.46312317774042   -2.15643533960928
H           1.03932343436720   -0.41193811920088   -1.33671916691776
H           0.28444678406353    0.48095173804569   -2.33001478607565
O          -1.45700546851239   -1.18554975069678   -0.81500775841740
H          -1.46521374317449   -0.31999552035526   -0.26298012372434
H          -0.66650070190364   -0.96203415398906   -1.54047944529059
O          -0.19898715098431   -2.43992094486086    1.01732239117862
H          -0.14624767372213   -1.73195557043263    1.69884207255765
H          -1.05199036243653   -1.85344219748774   -0.15313738411848
H           0.70971630796613   -2.59764499529006    0.74632716995789
