    19
        -40.91793124
S           1.22508923948052   -0.46136988794577   -1.17226549816067
O           1.61279299342685    0.62233737741526   -2.04546106270383
O           1.64093071279822   -0.22031790068545    0.21903588869764
O          -0.18255827819719   -0.79444339017511   -1.24624360832592
O           2.01420380276776   -1.75104214372569   -1.63509680319857
H           2.91843336297182   -1.46068703306571   -1.71891353450946
O          -1.28181855459286   -1.93120013543601    0.83245267373571
H          -0.79554476407235   -1.57517238758981    0.05095501991711
H          -2.05435715904429   -2.37564091721824    0.47825112866515
O          -1.53193085836683    0.23825509693134    2.27012748364418
H          -1.49727022888405   -0.60913461146266    1.74709444516549
H          -1.25620915079476    0.01265599819926    3.16084785218927
O          -0.52856178645759    1.94819876766730   -1.32283452968064
H          -1.10516554594745    1.19226383438116   -1.48525578918111
H           0.31859732619236    1.68660896214813   -1.74955478618196
O           0.23793800967395    1.61044596686251    1.07419684601242
H          -0.14568201218677    1.90551600666544    0.16392022016422
H          -0.51488593148582    1.12274659023177    1.59081541817600
H           0.92599882268369    0.83997982682513    0.78792862560290
