    19
        -40.91649141
S          -0.37399583753237    1.19551255496396   -1.28854215481840
O           0.29752024967206    0.85117802364723   -2.50785525867269
O          -1.24414096508257    0.15224692867416   -0.75409334097379
O           0.54513612273924    1.67789179702527   -0.24755381373689
O          -1.33474407573431    2.41479577654183   -1.61489307912240
H          -0.87349941102776    2.88425266242187   -2.30352806009263
O           1.82149799861743   -1.60164040387035    0.98222667317914
H           1.69713655265337   -2.48053810247419    1.34391007164828
H           1.48273257408661   -1.62739165217920    0.04726192922012
O          -1.79842600811866   -0.13523533430390    1.76043164991385
H          -1.75487970637578    0.03953433759637    0.78644638940020
H          -2.15642037605386   -1.01917473200757    1.86144620631401
O           0.65915074255705   -1.59448670759864   -1.36494999685628
H          -0.19698720986641   -1.17855353204617   -1.15904043201564
H           1.01353259276266   -1.01378962174638   -2.05056630526824
O           0.67359707889717    0.48452958110065    1.89198869547210
H           0.65450032104313    1.08174140489189    0.98666048323936
H          -0.30368174238386    0.22365143045871    2.01294673748535
H           1.19197112915957   -0.35452440108883    1.61770360567917
