    19
        -40.91439992
S          -0.06138004682829   -1.47007854991573    0.82115090621664
O          -1.05581409349130   -1.07804005015057   -0.19616992327958
O           0.97900447096753   -2.30930429403045    0.30403683506713
O           0.38454133020959   -0.29119360209863    1.55191389681973
O          -0.86873255532637   -2.33472558881267    1.88188924095010
H          -0.79245769213805   -3.24233757567813    1.59949904097679
O          -0.60850417799416    2.57333587892278   -0.84842203333088
H          -0.12963866504292    1.83163207786741   -1.34495445653915
H          -1.22174396707179    2.96915878125629   -1.47087432387394
O           0.40364711168316    0.47344471070694   -1.92201071535411
H           1.29765042494720    0.31520054010902   -1.54645119805368
H          -0.15377773419128   -0.22537203879082   -1.54222864805744
O           2.48568299439420   -0.18662675048221   -0.37638207171759
H           2.17954584426587   -1.09719542518452   -0.22682296931542
H           2.34161336341761    0.26105988923145    0.46240349520836
O          -1.57512366106203    1.06640952962482    0.89188663443220
H          -1.63425736723261    0.18846861301038    0.33380580104771
H          -0.75435650441817    0.75509199738178    1.42155052103387
H          -1.21589908508569    1.80107185704988    0.20617996776926
