    19
        -40.92179453
S           0.87756848400777    0.11735430234327   -0.37897271071833
O           0.50681491661407    0.34406911260518    1.00367216855697
O          -0.37592062023041   -0.40903607353956   -1.13178297950813
O           1.40890436664901    1.25723835957478   -1.04612744671267
O           1.83233483174795   -1.06826783142945   -0.46666274327715
H           1.29026551868853   -1.91847837734834   -0.26366685459391
O          -0.51715412232724    2.79391382053207    0.48240376160611
H          -0.22385982294727    1.95474151919285    0.87605901714493
H           0.28972934846670    3.27740822028105    0.28684981352994
O          -0.58393358869844   -1.76279671296724    2.20925527416751
H          -0.26462280849743   -0.90743818655726    1.85537819613296
H          -0.16117026343418   -1.87784135523613    3.06239378306155
O           0.25877506445404   -2.98412364549642    0.02992143333078
H          -0.10745957461737   -2.69542496603959    0.90308978446518
H          -0.43164724548217   -2.80877262492384   -0.61639482385170
O          -1.26053501776968    1.84077984896205   -1.88842806154791
H          -0.85582067431845    0.41257745371580   -1.49814038999167
H          -1.18111412983190    2.30017711573474   -1.01725119206124
H          -0.50115466246824    2.13392003060775   -2.40159601973287
