    19
        -40.92003362
S          -0.06091536605487    0.58580695904256    0.65210198808392
O          -1.19477320593335   -0.26333801454415    0.38776807555494
O           0.42486799240948    0.40553827543308    2.09220930844852
O           1.03571937328181    0.36277871250796   -0.26009521092648
O          -0.47818718512908    2.05795192937747    0.64329738355889
H          -0.81180564600635    2.33637479071512   -0.28137125665565
O          -0.61852361335080    0.07524915451907   -2.36494317700882
H           0.17049762685778    0.05988768942924   -1.79550138557007
H          -1.27856599937325   -0.43631837466433   -1.88621554155363
O          -1.15198514004110    2.57696254882637   -1.75390529083486
H          -1.04682774237528    1.66860644616828   -2.14130896338248
H          -0.48795735995538    3.13184880342196   -2.17037510281685
O          -0.16206627912012   -2.68263048672368    0.89908739159298
H          -0.64526705806826   -1.87054777811590    0.65230950191044
H          -0.71149943344859   -3.14155791452132    1.53778717828678
O           2.08941742608983   -1.42769430386080    1.59750123615233
H           1.16573781232736   -0.30446025237149    2.06349374466153
H           1.40541563218269   -2.09748418124696    1.37147756748156
H           2.35671815583932   -1.03697401313290    0.75668255295816
