    19
        -40.92079118
S           0.89588374586228   -0.42568915036309    1.10598948062751
O          -0.17609678673190    0.48311150840468    1.51697718775056
O           0.50324022780929   -1.20538899714242   -0.05973894062656
O           2.16491531620844    0.24182445739181    0.97162399458192
O           1.04286634943246   -1.48173711954318    2.27564820355166
H           1.42270402028035   -0.97339053535956    2.98553103442698
O           1.60529862529523    2.14317450085582   -0.77677047963420
H           1.84848845753585    1.51268635240476   -0.06461092827267
H           2.43093569227300    2.43886909821662   -1.16502522720502
O          -1.99467480208366    0.64483070325333   -0.15408866536499
H          -1.29948034770660    0.68313767731091    0.63746784320693
H          -2.25415774526983   -0.33645481124070   -0.15725166241906
O          -2.02038622875116   -1.91465854069110   -0.14244953667667
H          -1.04410268228596   -1.83545223752918   -0.02589889751185
H          -2.15989688131136   -2.43463129059023   -0.93644328522951
O          -0.21028719012231    0.59279736686840   -1.89386170911149
H           0.17794617825374   -0.19616249649061   -1.46420718116837
H          -1.34629508850697    0.74375569828252   -0.99503639088766
H           0.41309914981617    1.31937783605169   -1.65785482011159
