    19
        -40.91535431
S           1.32979239674880    0.51315182194424   -1.40782949273228
O           0.53185933732069    1.68804557959129   -1.21863696370971
O           1.93645637713750   -0.03842021265623   -0.23286939253518
O           0.55271596431643   -0.55126881107779   -2.16322612560616
O           2.47767938746302    0.86114499164500   -2.41974922250239
H           2.07053090550362    1.40756816032515   -3.08791467209591
O          -1.83132752703128    1.14894804842981    0.03154137597136
H          -1.08242503413749    1.57154172721463   -0.42040353595618
H          -1.60990885998056    1.16230360036819    0.98318890368084
O          -1.03452802359513    0.61254264659889    2.58608879221744
H          -1.70853157639950    0.21421325429046    3.13944252640661
H          -0.42857267126505   -0.09983786213995    2.32143837833493
O           0.50616596045186   -1.41699612660350    1.48542887361703
H           1.10483738199526   -0.87986933604456    0.91755679483597
H           1.05648897044547   -2.09034660788390    1.88975874171018
O          -1.23083005802086   -1.26925797775682   -0.62679540780646
H          -1.63358443474621   -0.37020186341830   -0.40426280147334
H          -0.26670342602464   -0.92493723128848   -1.54441806191650
H          -0.74011506024541   -1.53832379163811    0.17166130949140
