    19
        -40.91833238
S          -1.36704654831010    0.64811731548618    0.83093655427599
O          -1.27827514094362    0.15587896251182    2.18315998955497
O          -0.20320293106216    1.38626948633503    0.38143720847824
O          -1.72257558071680   -0.41765095989916   -0.11891376061935
O          -2.57535794160941    1.67185913493260    0.79421235696828
H          -3.24666416112960    1.23637054588369    1.31069954550465
O           1.65614710405688   -1.88930259047923   -0.21261201332095
H           1.55797695778518   -1.32990599776836    0.60770069725003
H           1.50665104742013   -2.79476724259466    0.06556506715234
O           0.65678797293811    1.45289843581310   -2.06182367815844
H           1.59046868152979    1.66725907596990   -2.00862493666063
H           0.28338485316681    1.59812355814302   -1.15504600764142
O           1.27882891010845   -0.39382226539927    1.90175824428605
H           0.33299574622051   -0.32461922423924    2.15246490616472
H           1.51794283733703    0.50614101236942    1.66243308292090
O          -0.06459596321225   -0.97423452745176   -1.84117616349031
H           0.66855721156284   -1.39473577792397   -1.25191402065576
H          -0.85644033905503   -0.76485872800180   -1.14075592291205
H           0.26441726391653   -0.03902019368385   -2.09950115909544
