    19
        -40.91107196
S          -0.58190790039793    0.68261294657032   -0.19308927726450
O           0.40735695285537    0.91772531584883    0.83250451660772
O          -0.65158366164667    1.67162507061663   -1.21585027961228
O          -0.33907095408957   -0.71372145228011   -0.80740165219468
O          -1.96293893200027    0.50899622690524    0.46753012813050
H          -1.83329279590656   -0.01698272284229    1.29239917744465
O          -0.86388805983469   -0.54856561956846    2.60951720337480
H          -0.13538020799854   -0.06282354414324    2.17592078460601
H          -0.99363581616246   -0.15628481911361    3.47616241036185
O          -1.58572602300013   -2.76944513137023    0.87064274912465
H          -1.30857814578589   -2.31000354899711    1.66861190062727
H          -1.20656430931390   -2.28495649565087    0.13164080314055
O           2.03704645717609    1.98720605431287   -1.16461144176948
H           2.01071276806146    1.82094779558154   -0.21519247444761
H           1.13148673573624    2.25131911261135   -1.38892409405958
O           1.76238455005116   -0.42368744057995   -2.18656032867860
H           2.04960437034019    0.46914592430889   -1.86068137174788
H           0.51458069182048   -0.70047457486353   -1.37492070137494
H           1.54939427004133   -0.32263309744593   -3.11769803227917
