    19
        -40.91469040
S           0.34731956843505    0.97942800785569    0.90547082537816
O          -0.58708386885822    0.98126360884791   -0.33436427880751
O           0.60791135066426   -0.39461035920024    1.26503040975146
O           1.48138560995241    1.79305743921235    0.64096871725400
O          -0.53774412963104    1.61335257631602    1.99960313266864
H          -1.17846064321276    0.90673719369369    2.27735052014154
O           1.53254537333057   -1.27777661273715   -1.18378941295165
H           1.45692442960379   -1.12877636158624   -0.22981716577785
H           0.67110904137231   -1.65190285554387   -1.44161730898638
O          -1.17997385607258   -1.49477201222486   -1.59263928826397
H          -1.25742542139449   -0.69491870311865   -1.05555887560993
H          -1.54249783958892   -1.28403172925658   -2.45529535637878
O          -1.73502651130834   -0.63847009790099    2.47490114528269
H          -0.93012528762419   -0.94172813750987    2.01581786051290
H          -1.70560135166242   -1.00434783941108    3.36244107895872
O           1.20791129697611    1.16802696197611   -2.05727550888484
H           0.04915810041155    1.13517799741939   -1.15157347832518
H           1.80607374161363    1.71021781242618   -1.52918580785039
H           1.49360038706291    0.22407310081315   -1.91046718816293
