    19
        -40.92022158
S           0.51656989196802   -0.05326113887118   -0.76750553610696
O           0.27434329084426    0.36568163789945   -2.21732611782018
O           0.76488537029924    1.08804857115969    0.07535872666530
O          -0.58858640928124   -0.86806443036144   -0.31892486783822
O           1.79407144859747   -0.89383349087768   -0.86525867465031
H           2.28989525430648   -0.79167279019280    0.02718646900654
O          -1.75766050028601    2.02845635740608    0.06352976211705
H          -0.79882884024673    1.86582851073969    0.12161976971390
H          -2.12661806750138    1.75195519809066    0.90522415295880
O           2.62213084389851   -0.45464021422802    1.48368846431351
H           1.87017580439643   -0.90926839219049    1.92626084147417
H           2.38399407200369    0.47976497027991    1.46814779497332
O           0.28877249982615   -1.60346001376907    2.10796411614817
H          -0.15841835599726   -1.35599609038889    1.27590188033472
H           0.22196371135633   -2.55812990353297    2.17791613902475
O          -2.24646957566154    0.52979670479308   -2.09429793991178
H          -0.73893760089837    0.46688501490138   -2.34604056457226
H          -2.35471715298900   -0.30825391881156   -1.63056644556411
H          -2.25656568464288    1.22016341792683   -1.39287796027213
