    19
        -40.91505828
S           0.08247553664643    1.33034688841740   -0.68039089301384
O          -1.02632946684878    0.86861226686238    0.12969042647936
O           1.15161229213936    0.21411814494532   -0.72833836270012
O          -0.24400702663275    1.75595951217686   -1.99123288699358
O           0.81874601376016    2.43927811866460    0.11166082369458
H           0.88032170972059    2.11085384654300    1.03656528209200
O          -1.44650634860299   -1.77719978394060   -0.42630063163903
H          -1.61415389532337   -0.84993700764750   -0.19788533885365
H          -0.80638953267739   -2.07840491451257    0.24158510418477
O           0.29645634952104    1.12868885501965    2.36297293409532
H          -0.39568789529904    0.89467082258992    1.70964289076259
H          -0.13714320461848    1.60917645976817    3.07190460125679
O           0.68208442685617   -1.65941899443128    1.36008193036036
H           0.63837450437701   -1.05004131564293    2.10299838858306
H           1.19469172113961   -1.20430928367743    0.68160493301367
O           0.06488896217561   -1.19504124944322   -2.47068396974279
H          -0.39677561319093   -0.52547342388165   -2.98485679968931
H           0.85073473522751   -0.42300748492256   -1.49995425284781
H          -0.59339325827622   -1.58887147693967   -1.82906418895484
