    19
        -40.90627065
S           0.12524743456530   -1.30903312409552   -1.67788970161988
O          -1.31073321442011   -1.69815623537082   -1.31887030614622
O           0.23694992567591    0.11614540447324   -1.78511024982098
O           1.06333226188537   -1.95209895790229   -0.81490276293879
O           0.26686028085713   -1.92509260537527   -3.10763796383860
H          -0.21966889934156   -1.35479984988549   -3.69931005661446
O          -0.12650068854410    1.33752653380585    0.59557897319882
H           0.06632628852572    1.12138105487598   -0.33418664222470
H           0.51139388144161    0.83053654816939    1.12125521929254
O           0.99011006569029   -0.99435337545472    1.67886715992872
H           1.74162600051955   -1.23716598846600    2.22240856413745
H           1.13566304332586   -1.40266600538043    0.80364545358541
O           0.74462441765004    3.96367033050368    1.20659902982414
H           0.41461058100885    3.07896598136399    0.98846016944841
H           0.00267379343701    4.55965732633131    1.09526284035361
O          -1.69252031095618   -0.76855614049026    0.97659120882207
H          -1.55200986725184   -1.34784136021926   -0.36560255152102
H          -1.01902113214333   -1.18022808061355    1.53762518926684
H          -1.37896387181302    0.16210854382311    0.87721642683210
