    19
        -40.92453779
S           1.21530795759975   -0.33464263833896    0.85634732052938
O           1.65855793905337    0.60609296058657   -0.16620769745735
O           0.21753181131674    0.27822650924220    1.72632030835846
O           0.76551838240401   -1.59214645105543    0.29710375179098
O           2.47114992342136   -0.66807145165389    1.75434030711628
H           2.76797240120947    0.17480749085560    2.08496226127821
O           0.44088740576717   -0.48988996003108   -2.18578878830461
H           1.02982108270877   -0.00598363375258   -1.55445159425345
H           0.52760777962330   -1.41104016401214   -1.91414788285611
O          -0.61352696804685    2.13101646452677    0.11642578745584
H          -0.36119375486211    1.53774608914898    0.86918582026629
H           0.22549895908802    2.30445924080960   -0.32632555129331
O          -1.74612919544763    0.34136720055319   -1.24791522876652
H          -0.91153823258543   -0.01315878025082   -1.77131846476019
H          -1.39070783970827    1.18436424167404   -0.74169197098004
O          -1.78756564792145   -1.29334973345747    0.67029098470696
H          -1.91062916380100   -0.36424839603103   -0.49249479567017
H          -0.86256992721279   -1.62088446197031    0.54989407504643
H          -1.73599291260348   -0.76466451685282    1.47547134762343
