    19
        -40.92113590
S          -0.23135744817522    0.66930665296097    0.96113423687336
O           0.72117268437167   -0.55868431969705    0.88169556262964
O          -0.85212834207520    0.82106156437134   -0.34117673053656
O          -1.13470913911511    0.51732872284396    2.04732724163971
O           0.73838836930213    1.82325566523881    1.19676968797265
H           1.54495750003799    1.67932762415925    0.57944630658734
O           0.84235581003492    1.00688870330158   -2.37070950092708
H           0.13147467290998    0.91334346047408   -1.70183406256927
H           0.63379042737771    1.79326942851666   -2.87880050183527
O          -2.20247139274564   -1.50373584277681   -0.60283659626652
H          -1.87021395666681   -0.58887229389641   -0.56250478743950
H          -1.98028623030890   -1.83801930649593   -1.47435427172929
O           2.59974910385901    1.19643472778185   -0.40310809027306
H           2.75665348517947    0.29018635489184   -0.12170085238015
H           2.09442142154595    1.13673395223621   -1.25114821023345
O          -0.99975755389667   -2.22385198925387    1.67363794429174
H          -1.56301742749315   -2.19163307004196    0.86955725045990
H           0.16497448331149   -1.35221491390665    1.21192160435809
H          -1.39399647755920   -1.59012511066361    2.28668376939943
