    19
        -40.91966069
S          -1.66580715665923   -0.14010826883572    0.37048414944586
O          -1.16068098582783   -1.30598378850716    1.11176136653454
O          -1.34060890520554    1.09415344932840    1.06843306641492
O          -1.22730089788940   -0.14980518300087   -1.00310980468536
O          -3.23430812131206   -0.27303158210558    0.37100923200226
H          -3.45048342895520   -0.24665743963607    1.29800817968647
O           1.21513271228335    1.23558442638592    1.15526954790256
H           0.21454642191941    1.27091852802121    1.14557336197867
H           1.49058430508627    1.62581871357694    1.98692351823241
O           1.12547559505516   -1.26217420474452   -1.79487112469637
H           1.34340248053711   -0.31323652426909   -1.96410452855557
H           0.15529931663624   -1.26964562359645   -1.84465063441395
O           0.97119700238234    1.37148849858365   -1.68032172014296
H           1.27021008169692    1.66324854429218   -0.81147668791486
H           0.03641415619177    1.13208702901680   -1.56962857850952
O           1.27141557249422   -1.30234159552652    0.69513228351743
H           1.30748917947961   -1.37482942804286   -0.37725173381412
H           1.43705056371122   -0.33010730003233    0.91475435454681
H           0.24097211841769   -1.42537823103211    0.92806573241816
