    19
        -40.92179444
S           0.92681613290905   -0.22623242281468    0.12668343384428
O           0.38107407781265    1.11078626691715    0.00308646848696
O          -0.25587756923735   -1.23316650435920    0.08029761904297
O           1.89921453322923   -0.56432751721395   -0.85661513990637
O           1.47324777553921   -0.42935970469332    1.53550452356607
H           0.66965683393734   -0.48157565133766    2.17559004807942
O           0.27137305037483    0.97827410175313   -2.69742399420784
H           1.20849615538093    1.00041328701979   -2.90822631799413
H           0.21408218827244    1.22367855851711   -1.75835951827128
O          -0.67298270141773   -0.55594985535932    2.86587024663207
H          -1.09520288070987    0.30186185663663    2.60911480083119
H          -1.13919446046524   -1.23730030679125    2.37236764097412
O          -1.50784513864733    1.69807478678271    1.78319186815405
H          -1.31146175415387    2.55690897537871    2.16231498570813
H          -0.88237070717862    1.57448692905941    1.03994587330980
O          -0.24615427978034   -1.61763571994947   -2.42342053722505
H          -0.20384132290855   -0.66727653119156   -2.69077785135059
H           0.65197090431541   -1.94965087872295   -2.51859388054615
H          -0.38100083725206   -1.48200966960492   -0.90055026910894
