    19
        -40.92079083
S           0.92469809153990   -0.89095934446120   -0.74823676989234
O           0.36171048991399   -2.21584576214648   -0.79494933567954
O           0.19619757687216    0.05937806285760   -1.59074731282678
O           1.10577864270950   -0.36494741201012    0.59773947662717
O           2.38380600689982   -0.98109951569305   -1.35464491463724
H           2.25363113961708   -1.45699556457718   -2.16891667913329
O          -1.35072241209839    0.22769584973847    1.44670675669935
H          -0.42592260700527   -0.09138257680171    1.41869466765820
H          -1.85800422510184   -0.48050900526835    0.98454272984002
O           1.50576083987177    2.22290468750154    0.75620607145739
H           1.56331006991831    1.23993730683490    0.69949712597575
H           1.62542578632415    2.45099063725377    1.68030104738031
O          -2.13898789589344   -1.79191596196894   -0.05186256788205
H          -2.50227589096686   -2.62673717121424    0.24977473385785
H          -1.24931886540150   -1.99579900367172   -0.41353456632503
O          -0.80551874851765    1.91932415851020   -0.30062390861877
H           0.05746203800638    2.28418576552029    0.08986801689265
H          -0.44849528012098    1.19123898875257   -0.97389117290600
H          -1.19853476655510    1.30053586084284    0.47407664150780
