    19
        -40.92174069
S          -0.65027420191675   -0.25224667119947    0.56417020438568
O          -1.02444918701723    1.02511791120573    0.03188690675144
O          -0.84087176020288   -1.36250071584949   -0.34504955980752
O           0.78313868379987   -0.22438615530456    1.06182925451775
O          -1.46982372613690   -0.51795736952451    1.84556706779727
H          -1.38515050254437   -1.49028205995762    2.02289602861636
O           0.74493425565633    3.02493556126527   -0.30498890198519
H          -0.01730590785812    2.42302713658629   -0.20832306045718
H           0.77452083956047    3.55604360454528    0.49249542197266
O          -1.17521621181002   -3.08880989649449    1.63464923529498
H          -0.94068850077930   -2.78033171240987    0.73984215522570
H          -1.97120051395788   -3.61947782005204    1.54769866289988
O           0.32354738482514   -0.01509764047681   -2.38339315507957
H          -0.28020824887601    0.72785846027226   -2.46444953126502
H          -0.12678006898791   -0.66184178906792   -1.81540648830738
O           2.18459320492637    0.82153978095856   -0.68323510832525
H           1.88591029005307    1.75632044796681   -0.59663578069460
H           1.47379108177116    0.20157140570325    0.33736934303954
H           1.71153306953465    0.47651750183098   -1.47692269454367
