    19
        -40.92219813
S           0.27535924561742   -0.88314660618123    1.17508536601069
O          -0.60865419262958    0.38116240225565    1.24736686270031
O           0.78574088815709   -1.00317445859779   -0.18205166060175
O           1.27582708972195   -0.88302202103589    2.17999345928848
O          -0.75951586500267   -1.99041949312407    1.41585458266180
H          -1.49042933732273   -1.80058095704436    0.75757810131502
O          -2.49026076434846   -1.07844904116090   -0.28774761044464
H          -1.97818250511010   -0.62285822049373   -0.98729640635759
H          -2.88974557408202   -0.38276259052162    0.24134210838225
O          -0.70415656231834    0.13460794174458   -1.97981246226437
H          -0.58859375141921   -0.22766743975213   -2.86023387645991
H          -0.06688890154481   -0.33935058769754   -1.39499879980998
O           2.65506850441265    0.88284518690239    0.28695433423767
H           2.25441169507279    0.05285730997034   -0.01415839455245
H           2.82659707678752    0.75056336892114    1.22346677081207
O           0.36524081644889    2.14426717876135   -0.25698318801349
H           1.31380969890270    1.90225671297212   -0.15438517468326
H           0.06415828603428    1.78568449334770   -1.10446008866397
H          -0.23978583736714    1.17718683054090    0.69448608644672
