    19
        -40.91612637
S           0.75329582282612   -0.39680958830875    1.51239617848572
O          -0.03222083491903   -1.59606979468549    1.73719825123763
O           1.83401987658984   -0.53454698161932    0.58115593000215
O          -0.13597376263353    0.73859183750192    1.16764373712380
O           1.37674173092137   -0.00582634095832    2.91317955230301
H           0.67104456228355   -0.18592759476086    3.52683429677108
O          -0.07632015373936    1.06870621959730   -2.52346282058262
H          -0.33613672954943    1.86312728133068   -2.99357130450684
H           0.67721778896798    1.32927555874924   -1.91506142447891
O          -1.28396572115343   -2.29523749129025   -0.40774422009811
H          -0.72600604024626   -2.15487854009936    0.40424003956275
H          -2.01944375990516   -2.84841974210539   -0.13569157570068
O           1.61754258103626    1.76000353795850   -0.67412676996112
H           1.01336528992463    2.02270182043074    0.03153145481057
H           1.96027388425878    0.90019684180324   -0.35209509554150
O          -1.62052441776927    0.18870621922097   -0.73233188090934
H          -1.04850426070155    0.46942135201370    0.11988763255690
H          -1.05348463799502    0.51853389789401   -1.54049036132870
H          -1.57092120820946   -0.84154851272200   -0.71949161971428
