    19
        -40.91892670
S          -0.02702040716879   -0.33677107499865    1.39367840575656
O           1.09953369972835   -0.71552300776949    0.57739264490226
O           0.14310283950032    0.90219914453335    2.12161203092171
O          -1.27261529177626   -0.32765434638835    0.60355142454576
O          -0.21973947848839   -1.48273873311567    2.46630675080651
H          -0.77693894573133   -1.09331785029181    3.13385787383281
O          -0.27981468040014   -2.47086549957164   -0.94301833464322
H          -1.16428784686453   -2.19903681162841   -0.68094348807975
H           0.30128648725512   -2.12271298974055   -0.24617606690991
O           1.01140140212908   -0.47261148439779   -2.16003187864127
H           1.56111147549238   -0.43148368088267   -1.36134251391345
H           0.54006768710954   -1.33090834823470   -2.06351953495586
O           0.52721969391285    2.63587359637423    0.22522952626320
H           0.48738639467808    2.02648603942218    1.00629881904559
H           0.17413399390717    3.47775781718103    0.52127050210812
O          -0.75102988753135    1.10700270723311   -1.35148687299816
H          -1.09984493585743    0.49755392143913   -0.56797926328270
H          -0.23970949541394    1.83898920353261   -0.85125069045119
H          -0.01424270444170    0.49776141732917   -1.82344933435441
