    19
        -40.91974983
S          -0.58135495071017    0.58101267128239   -0.19228713849024
O           0.03259299371847    0.58856546490238    1.10671451242251
O          -0.33734134170075    1.91666374983256   -0.89817794983254
O          -0.13088751145232   -0.51207741666256   -1.02915676184418
O          -2.10886032659371    0.55320582054704   -0.09504477115278
H          -2.43841029662235   -0.30743834777777    0.34418514860386
O          -0.14398873799653   -2.17012630173173    1.11917151983028
H           0.14658973599539   -1.42016578677985    1.65297240661356
H           0.03497474987471   -1.89419156561667    0.20679490670328
O          -2.72403973077730   -1.69656725443889    0.92626649296609
H          -3.08379326546729   -2.28337225089192    0.25667086645152
H          -1.80726282873925   -2.01970156376490    1.12786821238936
O           2.44965245486012    0.21995019912239   -1.30766800226613
H           2.68474330948740    0.25929136508182   -2.23701104743591
H           1.55674785787377   -0.16855530697205   -1.26439369123348
O           1.90286990923236    2.39309237036701    0.16074790760059
H           0.54645470435412    2.28885901324364   -0.52931556219550
H           1.63836199732286    1.98438234020753    0.99484191784282
H           2.36295128732119    1.68717283006074   -0.34317895693672
