    19
        -40.90754404
S          -1.44494319242045   -1.41328961827875   -0.74265327442168
O          -1.77210248611816   -1.35075113666685    0.64826407932326
O          -0.92829898959590   -0.03030696213795   -1.21980205183465
O          -0.54542000901390   -2.41939762339286   -1.18261845154223
O          -2.79483137268383   -1.52882816854713   -1.54056181494110
H          -3.46946210264440   -1.09336471429660   -1.02190424561497
O           0.76048241458725   -0.76772112125383    1.55220252600510
H          -0.15296405497308   -1.07832132741786    1.45955502636667
H           0.69437348319922    0.14982072619312    1.89644395122353
O           0.88143063805155    2.28336569046353   -0.60124970367907
H           0.01999920033359    2.04179782713292   -0.95337453372310
H           1.47988652812681    1.56779798953503   -0.84532472305645
O           0.64471192531946    1.87500597495216    2.08017842023577
H           0.70809138586404    2.16332081493481    1.14702888916806
H           1.36439526099405    2.30138112632458    2.54790841120384
O           1.51752078236417   -0.51338608133063   -0.89045819465684
H           1.55880578108232   -1.40438920172107   -1.25275637920509
H           0.09541681099246   -0.14438631888919   -1.18559281617118
H           1.38290797653925   -0.63834788565216    0.10471488526845
