    19
        -40.92003353
S          -0.61177101509891    0.62671309461719   -0.09110345892981
O           0.21049253714299    0.33053012563927    1.05802065661758
O          -0.32405676935928   -0.21834507853607   -1.22234633020500
O          -2.08914574083115    0.52670305001033    0.29574372235290
O          -0.48722909102079    2.10217275663908   -0.47703750645500
H           0.47214878035661    2.32826971849308   -0.74544038657004
O           1.97617857713871    2.48297015648055   -0.98491632872213
H           2.30041845762294    1.55108661304739   -0.87276112183447
H           2.37995342094282    3.00053695173611   -0.28391400950589
O          -1.03667864929865   -2.62003358762988   -0.27197976963704
H          -1.65891307850592   -3.03576414057278   -0.87234092735900
H          -0.71397625144969   -1.81555116914660   -0.72208435623071
O           2.39895628450583   -0.05966756299284   -0.46154277845366
H           1.93444681398144   -0.53017568922175   -1.16111830311347
H           1.77902705017997   -0.05245610375768    0.28859084762638
O          -1.81759382470810   -1.36156026898536    1.95000877742793
H          -2.15243445154472   -0.19673501186589    1.02148616504297
H          -1.58346163342813   -2.03184120106421    1.26917025662712
H          -0.97636142663162   -1.02685265290029    2.28356483131012
