    19
        -40.91793076
S          -0.86002815121377    1.19401418860604    0.95845799562381
O           0.25153625969063    1.64674862172408    0.10673945848829
O          -2.14491846454817    1.55025351922434    0.40173767537804
O          -0.73254151137575   -0.21294771498261    1.27791359826872
O          -0.70109917110393    1.97901031925699    2.32193427571993
H          -0.96611491054103    2.87126155214549    2.11552047644534
O          -2.05421893872191   -0.57777782957111   -1.12433517676715
H          -2.33538510017832    0.25837189860865   -0.68835607489300
H          -1.83414934517198   -1.15503590913533   -0.38362637892312
O           1.66694376069759   -1.24400303344393    1.32121961181861
H           0.79586959148885   -0.78264571078640    1.36894962970268
H           1.57975528529134   -2.02343857182111    1.87322764136012
O           1.94820559558824   -1.46799644811215   -1.26846028563040
H           1.87413568134005   -1.44216271666476   -0.27513062237564
H           2.83454344089257   -1.16606565027442   -1.47724032729176
O           0.20615090443929    0.25857759924935   -1.92351029753948
H           0.28784212279627    0.94277561692887   -1.10242287606419
H           0.91006102910831   -0.47640566589503   -1.73368926454656
H          -0.72658807856119   -0.15253407504411   -1.76892906880781
