    19
        -40.92025496
S           0.12954018138074    0.12057733961071    0.89284462500347
O           0.11755595352850    1.55851485981546    0.60678766472946
O          -0.94629029225863   -0.54900035920621    0.17822899700450
O           1.42206883030061   -0.48790530042738    0.58349704114215
O          -0.11501517435282   -0.01054092515065    2.42277003759043
H           0.28677616932610   -0.87015309789994    2.68440664097030
O           1.37773893638074   -2.16394869207789    2.60170302481459
H           1.60246117494616   -1.75845796346017    1.74009398335688
H           2.15801110297415   -2.08313570179418    3.15530676181917
O           0.95271884374813   -0.46206494907493   -1.99851075364689
H           0.23598752678595   -1.10324253058232   -2.03241962308290
H           1.30013736307586   -0.51839112315968   -1.07772959522419
O          -2.45316135335034    0.77176562458912   -1.46647769170964
H          -3.09628961940624    1.27111778022660   -0.95953857195762
H          -2.00444681575388    0.16284235796276   -0.82208755426409
O          -0.17115296186757    1.80535517128857   -1.82194132876179
H          -1.15897645756935    1.51443329390697   -1.84878546913626
H           0.00724862165577    1.84799976717478   -0.76244346177931
H           0.35508796048510    0.95423445822163   -2.07570471687463
