    19
        -40.91983397
S           0.09792422529032   -0.79134473325594   -0.43795257207427
O           0.41943355058265   -2.10892607023220    0.27615591930003
O          -1.08451466700696   -0.20061538823247    0.13032999187426
O           1.25397043212116    0.07713554438413   -0.38805409940282
O          -0.16719092053848   -1.22983453801552   -1.87713768304888
H          -0.88389555018207   -0.60003394746597   -2.26158582997929
O          -1.87399432795712    0.54845051836260   -2.41636064609735
H          -2.27775582704858    0.47792522576270   -1.54227022647551
H          -1.24148197070022    1.29742204596154   -2.34864789003978
O           0.09615505113038    2.18406100627442   -1.63290886272344
H           0.67546452061652    1.50334623204213   -1.24902334210462
H          -0.07819422427108    2.81499448868037   -0.93114971094301
O           1.69537997058318    0.37281804377865    2.24945405310356
H           1.62052400014008    0.37841238367601    1.27648418864104
H           2.60196511885360    0.13131337513045    2.44998282371360
O          -0.33116407837940   -1.34138016185677    2.56148105857156
H          -1.05808282106725   -0.82738914123596    2.18852434960890
H           0.13403025876804   -1.98692393462862    1.25468780715774
H           0.40142726906992   -0.69943093912568    2.69799069093511
