    19
        -40.91907728
S          -1.11728261133757   -0.48257813235861    1.13991163663338
O          -0.49004332099599   -1.22484308836615    2.20832832082301
O          -0.74338957083043    0.91186518239151    1.08344243360761
O          -0.91091790392340   -1.13463873557205   -0.17071276048911
O          -2.67970953128820   -0.53519541369521    1.38904298458564
H          -2.84160872838776   -1.39057046218331    1.77847977564770
O           1.77859201740341   -0.01291696759196    1.69857279141594
H           1.35002979733557    0.85089654100228    1.64036477694277
H           1.09286085841514   -0.58222361737811    2.11429566166318
O          -1.21310018843518    1.24184245375341   -1.49246381588870
H          -1.12729214036237    1.43298244479101   -0.53765674301537
H          -1.46057033845241    0.30795174524483   -1.50152865188913
O           1.30427230505683    1.09397882154684   -2.15164775647000
H           0.34143282485687    1.28769726004391   -1.95557725909101
H           1.37395007468649    0.96510033785603   -3.09928750150042
O           1.51597354284046   -0.92189161900776   -0.64299941262311
H           1.53552222427971   -0.10894461165869   -1.29159751584370
H           1.80024311414586   -0.56999418261282    0.29401085729995
H           0.49103756502818   -1.12851796627751   -0.50297783171848
