    19
        -40.92122935
S           0.30905876007156   -1.06725996182853    0.20770522860195
O           1.29795913309649    0.09660672390037   -0.07757816505708
O          -1.02657691290953   -0.51646569427398    0.23028411794041
O           0.50217233880974   -2.12613836915515   -0.73050122088961
O           0.72472394503858   -1.51635840489664    1.60216199886560
H           0.64035518362480   -0.73495266455625    2.25640212517921
O          -0.70876271925923    1.92401250965405    1.22206296071757
H          -1.00322224736138    1.09393788557499    0.79513277545252
H          -0.08076916689459    2.32757570606065    0.61866499512847
O           0.37508977584776    0.48027712407515    3.13732669593142
H          -0.32617418547875    0.28347354707177    3.76310464658556
H           0.00858361960853    1.15475481387338    2.50833383929847
O          -1.19630136988606   -1.03944093613219   -2.51151807325322
H          -1.83036932173655   -0.78495869260621   -1.83272167885919
H          -0.62611367590057   -1.69671375697140   -2.07602020878954
O           0.64145532733475    0.83613328270155   -2.43094719320085
H          -0.11781068220696    0.21297415691777   -2.58877202881398
H           1.10940221810160    0.45291497054422   -1.00534352873011
H           1.30729997008739    0.61962776000132   -3.08777730615935
