    19
        -40.91148435
S          -1.66622641910351    0.52466578276950   -0.31537785554878
O          -1.09772022587663   -0.35384184518411    0.74070472152704
O          -0.62721900272027    1.38181297610550   -0.85364920093974
O          -2.38265360631969   -0.23618833872239   -1.29594216617925
O          -2.66974665919727    1.48576870861234    0.44540564189850
H          -2.17668887919920    2.29703237478270    0.54309544358075
O           2.56736069032861   -0.31342276835926    0.60553275857088
H           3.19884896141371   -0.76178015739852    1.17119862142612
H           2.00516588127251    0.25175225374817    1.18815209640644
O          -0.03732880327716   -0.49218457417222   -2.57409945786073
H          -0.98806683263374   -0.69525477267273   -2.58132736321695
H          -0.02021136997677    0.40311215828145   -2.17048282754794
O           0.75836974651766    0.80385590825586    2.20474338469503
H          -0.00011893574852    0.46485382378185    1.67740524187930
H           0.60687719252606    0.51194357153696    3.10565678560819
O           0.66563914552929   -1.63542978895950   -0.45771540998855
H           1.50724653353926   -1.15953971508054   -0.10674899842201
H          -0.11831607833557   -1.21362205636021    0.10087270172777
H           0.47478867137925   -1.26353353094060   -1.42742411758904
