    19
        -40.91955068
S           0.98866683173895    0.56960323171476   -0.24376287200693
O           0.21775910513052    1.27890373555826    0.88524947539126
O           1.14770369590550   -0.82079798923346    0.11493606804141
O           0.37825425887095    0.81251248797443   -1.50834971007462
O           2.36106201855697    1.26908347777722   -0.17555713656639
H           2.71584726654399    1.00161015987616    0.70965134966785
O          -0.77380584442180   -2.47348124321754   -0.86527043361025
H          -0.34847907786191   -3.04374407673342   -1.50821278919550
H          -0.06335612326176   -1.95743049932923   -0.44448584689847
O          -2.12451963806960   -0.26838772052085   -1.65755208054205
H          -1.85547868971293   -1.17840812226509   -1.42060486636989
H          -1.30122705389049    0.16862663837430   -1.92743616795332
O           2.60480669584237    0.14673586704527    2.15351964292049
H           2.14723096418478   -0.56611116338223    1.67867009202378
H           1.94937130244598    0.56193550712063    2.72096275181494
O          -2.25381601869067    1.00767027129919    0.57805370222759
H          -2.32398607894847    0.46444699644497   -0.27087180410355
H          -0.81594014556508    1.16684074602295    0.79722811901211
H          -2.65009345878311    1.86039168550748    0.38383251613791
