    19
        -40.91612676
S           0.14202936940855   -1.68761324991538   -0.38369229229832
O          -0.29773967778436   -1.54432364145947   -1.75913548771505
O           1.50146314106087   -1.31079609235886   -0.13015646609209
O          -0.80456884483376   -1.00169682801724    0.52848595766202
O          -0.00214015910605   -3.22278956156880   -0.02859580088323
H          -0.82319109293239   -3.46870503867417   -0.44381867847771
O           0.66772152876005    2.30505815558884    1.32487099095410
H           1.00135195195366    1.43036897030224    1.68490330478745
H           0.41178643596326    2.83369192258348    2.08292594021853
O          -0.29737379082128    0.93525241061570   -2.47143282733827
H          -0.18909499460908   -0.03905536623168   -2.30014953783243
H          -0.88836811440022    1.01113932995795   -3.22374156833320
O           1.19079341143943   -0.09654352450726    2.17563393048669
H           0.30366634992017   -0.47671239073970    2.19158393384583
H           1.59465859327867   -0.52938838210327    1.39470406498636
O          -1.15961939304364    1.35504256914816   -0.13296845372439
H          -0.83049112412653    1.32909645615068   -1.11040488678057
H          -1.09167014278768    0.33823561560509    0.17265366318270
H          -0.42921343735674    1.83973863558234    0.42833420335888
