    19
        -40.91535456
S           1.42886100052163   -1.40105540347038   -0.08266576682135
O           1.25331466837958   -1.30205895111232    1.42324106318586
O           0.28823945584366   -2.02102702021165   -0.68851963675869
O           1.83322193654008   -0.14066491584943   -0.63092730391593
O           2.64366668773863   -2.38690832123092   -0.20630482082170
H           2.28752930321467   -3.25435370260967   -0.02852162125105
O          -1.82383769867383    1.58302435831847   -1.51794439533656
H          -2.46629637866929    2.25546994365187   -1.28479161559980
H          -0.98112647735873    1.84354366122530   -1.10976674569674
O          -2.03366103796187   -0.72609676517590   -0.07818111251908
H          -1.36109997644098   -1.34017699571818   -0.41599838301288
H          -2.08869833734913   -0.00376045185413   -0.73399339581364
O           0.50185065610785    2.05525285841219   -0.07760259149369
H           1.10657020552641    2.79940997726432   -0.06302112307459
H           1.03165448560937    1.27860309001852   -0.36967813303721
O          -0.56322866697288    0.32485884895112    1.75951270880030
H          -0.24586421858365    1.11398706449484    1.28294147097430
H          -1.26780169718047   -0.08407207571042    1.16280105818088
H           0.45670610053581   -0.59397521873977    1.65942035514022
