    19
        -40.92246911
S          -0.35615053571385   -0.59648749692701    0.81431197745871
O           0.91046644633234   -1.28693258671572    0.88738406272840
O          -0.35509525469255    0.73403656878074    1.34292494370822
O          -0.84167356574852   -0.60098596825040   -0.63265691808395
O          -1.43796720172823   -1.42937849384483    1.53613173381589
H          -1.33097753864062   -2.33798867294520    1.15819670197702
O          -0.76992373286120    2.93979181513789   -0.13671604161454
H          -1.69642400792316    3.18228119655210   -0.09482297965349
H          -0.63296791057371    2.25086971810474    0.54117200553447
O          -0.53342295272643   -3.43349269043228    0.14741634431963
H           0.30322746319920   -2.98006779969294    0.34088052111125
H          -0.75026948631029   -3.22817799235085   -0.76635513122930
O           2.27924522904238    0.81511035474313   -0.11093899435694
H           1.99367610074098   -0.03016951626126    0.27627685975081
H           2.18267699330756    1.46970313457397    0.58531761827901
O           0.30941815340285    1.21531012943639   -1.83466949432709
H          -0.36466180509419    0.18258667343515   -1.24103402444577
H          -0.10228707221265    2.00603019420006   -1.41144519312987
H           1.19311067819407    1.12796142247313   -1.40137400182724
