    19
        -40.91271928
S           0.09231784946346    0.03177398315451    0.53139407515201
O          -0.57295890187010    0.27597521697632   -0.72792575501601
O          -0.20295292363987    1.19110241312691    1.50297255557120
O          -0.20101539335341   -1.21828696468386    1.15228311311038
O           1.61171679574600    0.15539437634181    0.29795981687077
H           1.71893061839465    0.84947709188361   -0.44639098584864
O           2.77290981482436   -0.84349720167741   -2.24786788940314
H           3.71734299267404   -0.99928675505265   -2.31461435583051
H           2.51686043093409   -1.04290923175343   -1.34102893031452
O          -2.92885137029670   -0.66459854596535    0.20637963750683
H          -2.20880008860709   -0.25385656921990   -0.30231018499679
H          -2.74597975222806   -1.60745694417573    0.19268655684345
O           1.55006239270265    1.57070879314898   -1.79768663507737
H           1.98044502794341    0.88611788755066   -2.33971777320056
H           0.60009548300643    1.37596860538999   -1.82011753959090
O          -2.21270200833101    0.13937649650499    2.64909072546020
H          -1.78412164273381   -0.67478767938180    2.93164633886014
H          -1.01228268024740    0.91987092818631    2.05523696298460
H          -2.69101665443040   -0.09108590038996    1.81801025674923
