    19
        -40.92052676
S           0.32082594902232    0.56649429262588    0.52971114007854
O          -0.44257224036709    0.92458558378521   -0.63973941933852
O          -0.31087827435337    1.15953699771842    1.79237427967824
O           0.48214352546046   -0.85550544033857    0.70475377538503
O           1.68288556836107    1.26408998722483    0.47349667591336
H           1.94772083450585    1.31727313640786   -0.51803085448870
O           1.88967074560993   -1.50589101672080   -1.49341001208015
H           2.65057067293478   -2.01994211683714   -1.21524052168502
H           1.31638829865778   -1.41482371854546   -0.70893418048608
O           1.98871421931076    1.10283253504486   -2.02749107709785
H           1.06185201598618    1.28662258980840   -2.22078563936885
H           2.06944199731425    0.12181352117049   -2.04383571843606
O          -2.83529385890312   -0.16389768723270   -0.06790061859512
H          -3.50432478630765    0.51225221319795   -0.19369625797758
H          -2.00407154921280    0.20033457058912   -0.42666573697877
O          -1.81681230564107   -0.79932762290757    2.31102371673538
H          -2.38799762240867   -0.68465875917355    1.51741679135147
H          -1.15893391888306   -1.45840245728272    2.05995478149864
H          -0.94932930107512    0.44661339142599    2.16699886589400
