    19
        -40.91322285
S          -1.32121204359944    0.89928470461462   -0.29967929997483
O          -1.66883972890178    0.51557745198084   -1.73201833201798
O          -1.65100517524222   -0.15351382447305    0.61582475151120
O           0.00761261232956    1.41909357759456   -0.22306778501773
O          -2.31057923436470    2.08955157468404   -0.02345526259807
H          -3.19571269475734    1.73866092918442    0.06258290014860
O           0.50457371162917    0.52446946842584    2.31287599542967
H          -0.34634410773295    0.07373832086997    2.29307339868824
H           0.52342444262518    1.04695809088960    1.49718197452155
O           0.35950138022773   -1.73258045886424   -0.52274220943519
H           1.08097711245397   -1.74369479103894    0.14303566564310
H          -0.43368193723000   -1.45781603399460   -0.04757121251257
O           2.18091402339558   -1.39707952229048    1.43490140369619
H           3.04985933408851   -1.01461523006897    1.30650475900066
H           1.64828643995617   -0.72563219575533    1.91313179827278
O           0.60180082553316   -0.09746794923040   -2.52379327694277
H          -0.76702810498622    0.25534002291279   -2.21652323751532
H           1.09280785944953    0.62019313211069   -2.10833169838314
H           0.64464528512026   -0.86046725754795   -1.88193031254812
