    19
        -40.90822082
S          -0.55974203345713    0.04415022422400    0.11088191818734
O           0.83902787869872    0.35932184712749    0.29525491391853
O          -1.48976450187375    1.02303703768154    0.55113406039505
O          -0.78466604330020   -0.28652106178233   -1.38194196673829
O          -0.84753918441798   -1.31762634592684    0.78721593720765
H          -0.08656804440712   -1.90240155831655    0.54067968515318
O           0.94376537405145   -2.64792510050009    2.92712124232736
H           0.09796211734249   -2.22963736946712    2.75284791649835
H           1.40484819764102   -2.70686451690678    2.08575274803032
O           1.48765064654814   -2.19698492321700    0.02910636924645
H           1.62929115420309   -2.42643530228826   -0.89255381398381
H           1.64497302572290   -1.23770534973136    0.11408122182519
O           0.45529963204293    2.90867657993279   -0.57261422884677
H           0.04207426009243    3.31578543219048    0.19300924944001
H           0.82205183323487    2.06767156848638   -0.25551967678557
O          -1.50138243834262    2.01231532154364   -2.14710214420444
H          -1.09946502392950    0.57269759849280   -1.84265773576115
H          -2.25225417072847    2.15609407899275   -1.56266805617589
H          -0.74556265907984    2.49235181950119   -1.73202764975516
