    19
        -40.91790597
S          -0.39006429869514   -0.56522480614863   -0.76308716019479
O          -1.74165205296161   -0.62842816727470   -0.28599719037960
O           0.19658417770640    0.75019531042287   -0.73657588414485
O           0.48133373219871   -1.55468342764633   -0.01200120047036
O          -0.32710796278014   -1.11204137608924   -2.22333551277144
H          -0.90688890463810   -0.50999344493169   -2.73524657385419
O          -0.92747538357958   -0.34020047037266    2.30417879000029
H          -1.41271682809610   -0.41443771526552    1.46785283878124
H          -0.67198189548066   -1.23324676159840    2.54483560154053
O          -1.92287613863944    0.94219708566260   -2.58239284623702
H          -2.50840746065900    0.63324097969200   -1.88145377919752
H          -1.29074171831548    1.53418482986757   -2.15992754430135
O           1.11170336790301    1.38960352362610    1.76149223224528
H           0.40866826601901    0.89567868570792    2.22246575120036
H           0.74911717062863    1.55324666785724    0.87777749237406
O           2.59580386446762   -0.44982471730875    0.71511490659920
H           2.15881239759956    0.27857403897615    1.25764290415675
H           1.41685793063048   -1.15404034985737    0.27849524126675
H           2.98103173648473   -0.01479989565809   -0.04983805641538
