    19
        -40.92087810
S          -0.71667997225303    0.50290127634200   -0.81914799863176
O          -1.41684260504971    0.78809806763124    0.41553123754240
O           0.34559853279264    1.39709498745389   -1.14911281805441
O          -0.21965875427699   -0.94071313472554   -0.76352246933373
O          -1.73381143827226    0.46441060931926   -1.98128396033878
H          -2.44442026206964   -0.13972413495761   -1.65506901974230
O           0.39199486445463    0.52074111712999    2.37745741580576
H          -0.03969965366687    0.45480414609612    3.23107416573285
H          -0.29887687612831    0.75186976891050    1.72796544199913
O          -3.10121105818367   -1.12578405933448   -0.43543958336488
H          -2.53634620293693   -1.90213956117319   -0.38258220049990
H          -2.75470379502957   -0.48772814589661    0.20971272123403
O           2.93779598008547    0.84810151714499   -0.69182816672416
H           3.33439826573221    0.68875565220898   -1.55037102231242
H           2.06010676397596    1.23886031951429   -0.86330677454564
O           1.74999297856851   -1.04257523933159    0.71140175504280
H           2.36894486119628   -0.41644583389756    0.25736018224457
H           1.40185125107507   -0.54596505039628    1.48487995047751
H           0.67156710990713   -1.05456231204271   -0.12371886655167
