    19
        -40.92136500
S           0.91956347699771    0.13975334386403   -0.50770656400274
O           0.66659062554320   -0.45747756999394    0.90675464804322
O          -0.36934394194997    0.43146725039679   -1.08699679022962
O           1.81314847965612    1.25076830814920   -0.43183354958807
O           1.59581636726294   -1.02027180790732   -1.23006588700216
H           1.07987838641421   -1.87629690255353   -1.00273314675491
O           0.16165666559652   -2.97008218428047   -0.47978804859629
H          -0.73453588216115   -2.63711446781559   -0.73565192696109
H           0.21878093627114   -2.87976347420594    0.47584419081032
O          -2.00748049533195   -1.63885962104063   -1.17410401213184
H          -1.50054826082979   -0.79832689208873   -1.16784714213314
H          -2.37268027675336   -1.72830406088865   -2.05632713359826
O           0.79677834094268    3.19031263609147    1.10929642571260
H           1.47887293149659    3.45969838855446    1.72773261060930
H           1.23601875616008    2.62203574572934    0.44662359913816
O          -1.01374188154610    1.31188546302351    1.57726970249247
H          -0.44513904887118    2.11773554471292    1.54357903638155
H          -1.51078257447293    1.31220952102855    0.75257694753378
H          -0.01285260443724    0.17063075924537    1.33337705028665
