    19
        -40.90202601
S          -1.55354975955095    0.52598151171683    0.67055831089759
O          -1.74991227362179    1.92350024280783    0.44569794668413
O          -1.41111570118588   -0.19370020714306   -0.68223185939975
O          -0.51103095540276    0.12802535411716    1.55659823210838
O          -2.88993052434382   -0.08142909238837    1.23153673571229
H          -3.62487221602616    0.40394924099192    0.86131891741257
O           2.73041594871968   -3.47399894328085    0.88251467173434
H           2.28370867107488   -2.66680303820153    0.58814465290280
H           3.54854250175492   -3.19241654801827    1.29411230465658
O           1.21676567039645    1.51930369519407   -0.35963209225531
H           1.50703707867315    0.58908350300276   -0.31773646961047
H           0.84075524162210    1.71855903070864    0.50125695829443
O           1.26627674835921   -1.19288537892456    0.02915730143090
H           0.69006834525849   -1.58626035501711   -0.63171792938769
H           0.68566869439437   -0.91653249340975    0.76053075354838
O          -0.73945092272172    1.74595493112777   -2.10483070348445
H          -1.26458990329927    2.42179621359022   -1.65953699515298
H           0.14804083183952    1.79243149758558   -1.67366559394072
H          -1.17282743592148    0.53544083558467   -1.39207516218005
