    19
        -40.91487924
S           0.27028031429223   -0.92011352849851    1.76598793639874
O           0.96622724534633   -1.67326335573412    0.75030954466591
O           1.01817915259983    0.37623791651259    2.03034959772854
O          -1.11838380262142   -0.70349552579211    1.54336008944569
O           0.44758645922777   -1.68168904766641    3.12557372490828
H           1.37907730064435   -1.87626610811548    3.19818146053295
O          -1.45383826540231    0.00514271819005   -2.47716278735046
H          -0.55487588766901   -0.26912891305812   -2.23011557821734
H          -1.37342197521526    0.55724533147454   -3.25687268480971
O          -1.89048469008269    1.32267648061653   -0.12563347658267
H          -1.96037859782517    0.85355930110277   -0.97983891403367
H          -1.90470581035886    0.62725709280378    0.55060088574263
O           1.12913682470624   -0.45417412558012   -1.56380546026762
H           1.04227272394437   -0.99584756920129   -0.74420491366466
H           1.88082195246195   -0.81191727942963   -2.04013425606290
O           0.65072766203896    1.73141126244611    0.01134132993114
H           0.94089513496260    1.12085840911139   -0.69144765055660
H          -0.35943233569864    1.74129613384989   -0.04236730321290
H           0.89031658464776    1.05021079696293    1.17587845544474
