    19
        -40.90677355
S          -0.45333358956338    0.02283320664677   -0.48926849921919
O           0.70674137023798    0.27890574587860    0.32994361206824
O          -1.58979419606475   -0.44671563668140    0.44704733427950
O          -0.88070887367630    1.09247542602675   -1.32536926431357
O          -0.20840673472473   -1.23413225129213   -1.35392634076175
H           0.29990601783631   -1.86896115178325   -0.79017263580008
O           2.61688002560781   -2.10743887273894   -2.21350141902985
H           2.49243615132797   -2.35862631692974   -1.29400126416890
H           1.78071928229933   -1.75089960707145   -2.52058724144706
O          -1.61497387121845    3.16712131704750    0.24775515128512
H          -1.15920124737663    3.96956274669842   -0.01389225847401
H          -1.45388907570514    2.51465081094447   -0.45693212456180
O           1.33854034975352   -2.28084145941434    0.46883797567895
H           1.02155842798371   -2.69674450497140    1.27410415238531
H           1.41390693472611   -1.32263697789688    0.64315214458980
O          -1.12752857119629    1.36472831697627    2.15613849004539
H          -1.58187025961252    0.20259669604918    1.23182564646259
H          -0.17647866652614    1.30103449867236    2.00710758270350
H          -1.42450348438617    2.15308802349710    1.65173896823830
