    19
        -40.90540937
S           1.30714533257820   -1.24848363391032   -0.17997160488576
O           1.46542726608511   -1.06005668271630   -1.59143134380062
O           1.27264970076125    0.11596805252155    0.53028353758506
O           0.25820724838085   -2.08670226573399    0.28458608493260
O           2.66437051808135   -1.83250188808430    0.37423704947622
H           3.38237317983197   -1.42463210718676   -0.10751115669076
O           0.29124318247459    1.02038355126930   -2.92470274030957
H           0.81858839670665    0.29335190100005   -2.54554743714964
H          -0.14840125100917    0.64895697923686   -3.69214950602675
O          -2.41110307290794    1.50589732031569    1.41584140515993
H          -2.08333851519695    0.66550638083549    1.79920694088326
H          -2.24843374523392    2.18446928205712    2.07281049136835
O          -0.98292288619928   -0.64761639375073    2.29155589882250
H          -0.12726352976579   -0.29781884236562    2.55110976158852
H          -0.78990981174410   -1.28666217644150    1.58615666880806
O          -0.85124409137267    0.67843815083708   -0.55533664306677
H           0.37036419705247    0.49453616682577    0.14660454760932
H          -1.52041587037252    1.17679804056744   -0.03748632872760
H          -0.66733623821247    1.10016814464991   -1.41825562556645
