    19
        -40.91940429
S           0.03595907219559    0.92000713252359    0.54375319930776
O           0.79451510500124    0.76365458872509   -0.70266835201473
O          -1.37584846144778    0.66726354628525    0.34511409647220
O           0.59135308043812    0.06446669760044    1.59757062976891
O           0.23281909983340    2.38314784148616    1.03328468142581
H           0.06730938648038    2.91894448384167    0.22909300541162
O           0.22212919347933   -2.29918673846307    1.01117114083110
H           0.42316321922085   -1.31865439342941    1.39054999215104
H          -0.79424112335305   -2.25016929723971    0.80156468871331
O          -2.18063737579167   -1.77933787865889    0.46347693120589
H          -2.82976585951886   -1.80911098341370    1.16961201166506
H          -1.97246792558347   -0.81428418531059    0.32338285110264
O           0.10185653633735    3.18935932857304   -1.46939919224342
H           0.85486306178639    3.66798301959218   -1.82402542242393
H           0.33275903397938    2.24056862705668   -1.49882966995587
O           1.35570943527848   -1.73317386336226   -1.18368203871668
H           2.31337014525959   -1.78325616833793   -1.21666709459972
H           0.69506922400506   -2.25978205314367    0.09886034762034
H           1.13208518242311   -0.76843970428922   -1.11216180574361
