    19
        -40.92120107
S           0.03614190934222   -0.54486563861867    0.79593839453313
O           0.58580267266384   -0.18892892490672    2.05966266803791
O          -1.04155413843446    0.49169320387019    0.37531261934276
O           0.99048112016616   -0.63759180056362   -0.29122463004414
O          -0.74336953537331   -1.85030921338879    0.90406070716013
H          -1.16660780630365   -2.10765270674117    0.00712096613031
O          -1.66704255074473   -2.42726617869982   -1.39115493617522
H          -1.19211815900406   -3.18376279191558   -1.74349412103247
H          -1.36928490205698   -1.63739106828385   -1.91500621270937
O           2.23329996224855    1.65121025734207    0.43660583284309
H           1.92109664391886    0.82069641500552    0.03816451450390
H           2.83666190677159    1.39106361398949    1.13657959021364
O          -0.58425038428862   -0.26757432023141   -2.41736840364868
H          -1.08241340446227    0.50612326380932   -2.14178388615038
H           0.15187972917988   -0.35178116007782   -1.78110209427647
O          -0.03986937350318    2.48678575084045    1.56737372467854
H          -0.78439484970087    1.37307984421052    0.82050223298131
H           0.08203874534308    2.06194270562906    2.42335285599862
H           0.83350241414044    2.41452874879413    1.11646018762269
