    19
        -40.91628423
S          -0.69654814795422   -0.41629600630114    0.99592633753953
O           0.73339703577120   -0.61030938619374    1.09731633612011
O          -0.96141561909900    0.99122417455301    0.45166421928526
O          -1.40028739095911   -1.38938750235935    0.22564432207780
O          -1.30532440691102   -0.38914398911240    2.41716961172575
H          -0.63286503397463    0.03756115172259    3.00640994356187
O           0.65641418174570    0.48078562353964   -3.01891316292407
H          -0.04154920529693   -0.18863194442109   -2.83847869087671
H           0.26035336118790    1.12147310493762   -3.61232886506449
O           0.90129265367177    0.45224184506019    3.50904652922166
H           1.19477189654974    0.11329609666837    2.64203895919709
H           1.29129244945108   -0.11396626275514    4.17938804749397
O          -1.28661663905119   -1.26874103594562   -2.44914402300177
H          -1.19000211932197   -2.18460381037509   -2.71790960613382
H          -1.42388888336053   -1.28848718835542   -1.48240514824643
O           1.23680752740401    1.45776335777637   -0.64217487598967
H           1.65359376565545    0.72403260026990   -0.17292997991963
H           1.10394581707104    1.14664002750101   -1.57624250758939
H          -0.09337123257716    1.32454914376624   -0.01407744646021
