    19
        -40.91483135
S          -1.00327349111585    0.33478387841453    1.03945652248272
O          -1.03846080082991   -0.99754679857528    0.49468300173547
O          -0.24975995494880    0.34336171168448    2.36187562677425
O          -0.53146764676001    1.36323573641161    0.17529785812166
O          -2.46389052166886    0.69306856069318    1.48210528688597
H          -2.81696963246931   -0.05525855604305    1.95962646334402
O          -1.24218633623265   -1.33365350400437   -2.22312336556931
H          -1.01744067641393   -2.24462134775638   -2.42266884546537
H          -1.27787324896695   -1.26241025735022   -1.25515269946496
O           0.73323207899792    0.57636458332445   -2.18277940173646
H           0.04909652799501   -0.04342592363435   -2.49171868554666
H           0.27331474132648    1.16291063341105   -1.56794586735959
O           1.67563011418381   -0.84298635624447   -0.14810665219284
H           1.51467855783206   -0.36452449643503   -0.99952945359249
H           0.81891806229937   -1.20856437980104    0.10311691168505
O           1.98230134379528    1.06403947105803    1.56746991356524
H           1.78387015794684    1.84030058859686    1.03376711169653
H           0.73725200890540    0.67294308629884    2.15480736749024
H           2.07302871615803    0.30198335003448    0.91881888708430
