    19
        -40.91893376
S          -0.49438888519538    0.52457001106300   -0.78920593432647
O           0.61437287318663    0.07532782032247   -1.56050528352139
O          -0.37894906786036    1.80154757013353   -0.13392516873224
O          -1.76105594791087    0.52479958102250   -1.68300308562304
O          -0.83529692311573   -0.50943993402680    0.30545456357393
H          -0.27328331825601   -1.38573451786633    0.18827283635042
O           2.73091522782324   -0.99178213653156   -0.16136422175668
H           2.37957329217593   -0.54364368113442   -0.94304031347017
H           2.57642632606041   -0.36170810662987    0.56601507317797
O           0.62739048080273   -2.50629779091219   -0.05506260093864
H           0.51340264257498   -2.77550381605598   -0.97000215433731
H           1.52261654514331   -2.04699528901607   -0.01862634956150
O           1.55227780229000    0.80451942707848    1.52429075492874
H           0.98775718937287    0.38833924347695    2.17914456595874
H           0.97624786556539    1.35243626478216    0.97008022869011
O          -3.01995021339508    1.64873445517012    0.30163225236800
H          -2.47118917253299    0.93101958202930   -1.12732439712272
H          -3.10395393663626    1.01227100893591    1.01634909202855
H          -2.14291277008660    2.05754031816367    0.39082014231414
