    19
        -40.91188294
S          -0.92177553660396   -0.48824986034287   -1.39888733584736
O           0.07275474474007    0.53137404655487   -1.53061817118711
O          -0.57269782265456   -1.81320275827875   -1.79562588951381
O          -1.48033394468688   -0.50613090891166    0.02659775321955
O          -2.16841725611359   -0.01685664076100   -2.23325215368304
H          -2.71078390727047   -0.78140968185545   -2.41828680224099
O          -0.61304563194860    2.21378529136283    0.49758930614313
H          -1.32509404689921    1.66131143736549    0.83111556224950
H          -0.33630844256854    1.80307550186898   -0.33807551317278
O           1.61118567707920    1.59525648998946    1.89845394526101
H           0.78074340585557    1.91852675779201    1.48687141988085
H           2.24337729882180    2.31243548029374    1.83123919454527
O           1.90188890456247   -0.53390246053258    0.29494986426502
H           1.51578432479680   -0.13416716612927   -0.49596908955278
H           1.91210883638467    0.17974267995841    0.97323526582780
O           0.05395683028317   -2.22077376728746    0.90087194336485
H           0.88500129637115   -1.65673966356996    0.80225797580050
H          -0.89900894457902   -1.25930537280539    0.53453250009210
H           0.05066421450408   -2.80476941470846    0.13300022455677
