    19
        -40.91286531
S          -0.84820994928466   -1.60895413856791   -0.05463850648212
O          -1.84127061880129   -0.63209469206660    0.29107624828537
O          -0.39479774657836   -1.41505932539949   -1.49524224521951
O           0.26140487989751   -1.73316319782590    0.83108342283590
O          -1.55721423882004   -3.00846712143807   -0.13145893896746
H          -2.38935230450569   -2.84767146372001   -0.56970623418657
O          -1.04140444606907    1.52407209240383    1.69430484382715
H          -1.35567212853247    0.70484087367285    1.26797564400403
H          -1.77225889485713    2.14364104273597    1.65136782374547
O           2.47278652936793   -0.19844942792465    0.78281942622019
H           1.73337084019575   -0.83399627496117    0.78981317395495
H           2.82095709538793   -0.19062636473191    1.67647398553243
O           1.03517165351537    1.95383530320650    0.03383792922424
H           1.68106604693418    1.26521310302248    0.29670540723087
H           0.32975590007482    1.92016832123160    0.71328588999287
O           0.00993320672570    0.95669377987655   -2.07043811520906
H           0.39550817298419    1.41540550956162   -1.23809186393847
H           0.71036394794560    0.97306922464008   -2.72743531341422
H          -0.25013797571072   -0.38845724361859   -1.74173259748002
