    19
        -40.92120597
S           0.84244069770162    0.39075088537223    1.02045033881050
O           0.36300940681054    1.41720887736909    0.09455792042472
O           0.35230684658358    0.55909213415218    2.36084230045624
O           0.67132974067919   -0.94013076994317    0.46040062472193
O           2.42532870080885    0.59364607232721    1.08261016387407
H           2.55469479632647    1.20257539661972    1.80340842029186
O          -2.16988757649781    0.29766881029051    1.53347156228578
H          -2.72237303715363    0.15133376102457    2.30418048492039
H          -1.26691148198261    0.45751867955436    1.87039107905748
O          -0.57719315221227    0.48102803957083   -1.99375904201730
H           0.27019678449594   -0.01651198585184   -2.24529392704275
H          -0.24807953100760    1.01742489350773   -1.15008612160211
O           1.67052925413199   -0.74780676814698   -1.95279220315939
H           1.43422887393645   -0.97620349890815   -1.02414240894611
H           2.46885775452051   -0.21877837506782   -1.90278419102727
O          -1.76285199330838   -1.22398126813022   -0.61170337312460
H          -0.91971573294225   -1.50431789467764   -0.20769763291812
H          -2.18014427676913   -0.68735976361729    0.09612972275844
H          -1.20576605189177   -0.25315722461979   -1.53818371641942
