    19
        -40.91966047
S          -1.49136357614913   -0.36720114836227   -0.75716505951085
O          -1.94008251305382   -0.12959854984074    0.60608391599335
O          -1.18986026211158    0.90310677124758   -1.43522660874759
O          -0.38803611768163   -1.29149152197299   -0.84111105541936
O          -2.70299318246614   -0.99859153391319   -1.53919387621089
H          -3.39190184704074   -0.35120955597662   -1.42449860385034
O           0.00917241099572    0.99628053386646    1.82813890970424
H          -0.79084752646476    0.54063224966932    1.43472282302210
H          -0.32809891656327    1.64492338750185    2.44885693396939
O           2.21257998719992   -0.48997370752772   -0.98225310695119
H           2.22269836061455   -0.89745921072936   -0.08164209607518
H           1.47673400054879   -0.95112712504720   -1.41667191942118
O           1.33139118440427   -1.47257071426403    1.30407487371648
H           1.01807902356290   -0.74665279803101    1.85578362257608
H           0.59020416922332   -1.69453208408160    0.71663126458891
O           0.97150656396206    1.61680201860464   -0.48416551953432
H           1.60642677584415    0.78735160605635   -0.73655240810726
H           0.05609832452352    1.40561030859417   -0.98466825405284
H           0.72829314061773    1.49570108423224    0.48885617428534
