    19
        -40.91373480
S           1.16934657522831    0.45094828129822    1.10057104633729
O           0.33097686977283   -0.65498086819228    1.47965403241142
O           2.44029095870096   -0.04123466179498    0.42567113489365
O           0.54565847656570    1.47787875452289    0.33275173929101
O           1.71817537577767    1.09610770563867    2.42282017193678
H           2.04520182056161    0.39672328036393    2.98644706661669
O          -2.00633759232645    0.74949821318597    1.04207589618015
H          -1.44965915764156    0.05724946278551    1.42348267913015
H          -1.37706051619483    1.41907738880615    0.74419901667934
O          -2.55461094151570   -0.40372750801594   -1.32848174411593
H          -3.35002700659745   -0.93564412138143   -1.27532574790497
H          -2.49120863159907    0.09070578984336   -0.48172049060476
O          -0.12898390511078   -1.53614467268990   -1.12674603031296
H          -0.02378216587115   -1.47619446809599   -0.16781181179281
H          -1.02494459920098   -1.18227502873810   -1.32463176945280
O           1.68730283355374    0.12005839973904   -1.92406712221314
H           0.99198854633502   -0.59605692108590   -1.81392957291946
H           1.21270266701585    0.95809092287737   -1.89091598980187
H           2.26497038244267    0.00992003122875   -0.62404250426506
