    19
        -40.91893375
S          -1.04730527499875   -0.16380395359613    0.13862084118441
O          -1.06456659347986    1.23596215151223    0.39649717944848
O          -0.85372957888125   -1.04729689580340    1.25900475678494
O          -2.35449056454129   -0.55514679963416   -0.59721940895425
O           0.05210357693320   -0.50191758100264   -0.89136292152078
H           0.47965066549559    0.36748810254511   -1.28973941460986
O           1.70544422960700   -0.13552219064678    1.56583157728798
H           2.13932739633538   -0.68297192143704    0.90797267304423
H           0.81244593763314   -0.49434655395962    1.67955059207831
O           1.02831018994554    1.65602793353707   -1.69605840148061
H           0.29591083457513    2.20176789920254   -1.99329517615262
H           1.30566143867408    2.03779920487087   -0.80668026682794
O           1.38015087257038    2.45005993108312    0.74852546668243
H           1.72270692992948    1.64894077400299    1.18527157174097
H           0.42640941454379    2.41717672586818    0.90550738219243
O          -1.59824279195142   -3.03820066594169   -0.37500382157334
H          -1.26896215153160   -2.67463348495639    0.46386679197195
H          -2.32925273802991   -1.54146721320541   -0.66492696842663
H          -0.83157179283273   -3.17991545242696   -0.93636244285986
