    19
        -40.91790596
S          -0.37291922370051   -0.18212090328297   -0.93927650521970
O           0.73726691612384   -0.93565001895191   -1.44701402708663
O          -1.23931878028060   -1.05378687552381   -0.04933504899256
O          -0.01337874013821    1.03671281182385   -0.26061314218760
O          -1.34560749412100    0.16482342616846   -2.10933478851328
H          -0.80701067918793    0.70696454596735   -2.72294421834090
O           0.76337714656372    0.55793669635354    2.31854813172002
H           1.16396587795050   -0.30668838347239    2.11173167790917
H           0.74067843303511    1.02066263970291    1.46731744409308
O           0.80712547046967    1.42785924728877   -2.92583615034118
H           1.33518040890881    0.62536072851093   -2.84334938614839
H           0.88205370024940    1.88393583568264   -2.08021411676494
O           1.41842841793767   -1.77305549775857    1.06116770388865
H           1.36591652007441   -1.56361240810797    0.11578050254793
H           0.82140406136163   -2.51045669640395    1.20481875430098
O          -1.77677471050060    0.15358131320271    2.06553663691333
H          -2.11698082834744    1.02136510654923    1.83300023906244
H          -1.54093458549894   -0.57230207572884    0.84399723663264
H          -0.82247192089986    0.29847049796390    2.35601906652771
