    19
        -40.92048084
S          -1.24604821391247    0.29746063602760   -0.96629556014405
O          -1.13732906187562   -1.14696431505967   -0.95950831458010
O          -1.82518308503906    0.85501131235823    0.23688389345169
O           0.05494872487168    0.91662353952577   -1.26301805162836
O          -2.21391503131141    0.69047226677990   -2.15507730829631
H          -2.62637993274773    1.49305595597902   -1.84908284389969
O           1.25393284966161    1.77610267527917    0.87892042225569
H           2.02537668319731    2.26066327990601    0.57752194317730
H           0.70609157465127    1.59183449511347    0.07354707408573
O          -0.99005683509005   -1.17050949872831    1.65398429745783
H          -1.14093420676348   -1.57675129579303    0.77687507046213
H          -1.40666913500478   -0.29256516588242    1.52166212163089
O           1.45547455458709   -0.68506233631692    1.45599598973398
H           0.44178083974829   -0.93802405655334    1.66504320594015
H           1.45745736826378    0.33993177605644    1.37691499945235
O           1.56394350154894   -1.19846174082474   -1.01224184522392
H           0.88630286540992   -1.85766216401682   -1.20720261091762
H           1.12836313219663   -0.35152193457878   -1.27669765736965
H           1.61284339767807   -1.00363342971028    0.47177515447054
