    19
        -40.91892660
S           0.86399446137123   -0.07445544902767    1.14323775782956
O           0.01462284484163    0.03401853120289    2.30977624098931
O           0.55118466658296   -1.28684783397814    0.36357474701609
O           0.87880896449294    1.09355276327338    0.29792556336337
O           2.34314730033303   -0.28055453435053    1.66317151440049
H           2.25636428974678   -0.87757634810541    2.40055173394873
O          -0.43430382693816    1.11295768749003   -2.11840124925511
H          -0.15799556798996    1.62782375304700   -1.34367198106754
H           0.39502199075706    0.66111038157311   -2.39438239217810
O          -2.33383851589101    0.44578346613204    1.27820511018417
H          -2.98476007553163    0.05600630478711    1.86593846921321
H          -1.46366194180376    0.39159237609552    1.75031738389535
O           1.89290396261020   -0.17449913984900   -1.85950430199163
H           1.84364851201395    0.36606116491974   -1.05320869169676
H           1.75828391036892   -1.07722649371581   -1.55661483655743
O          -1.54602051842263   -0.72390858392571   -0.83547920261003
H          -1.18135159547983    0.04801048245316   -1.47397809788505
H          -0.67264975080313   -1.08813173740012   -0.37583377900716
H          -2.02339910023900   -0.25371679064031   -0.06162399856776
