    19
        -40.91535446
S          -0.10601577335591    1.82809594504375    0.80974674936715
O          -0.57429901458863    2.00321144990803   -0.53297164540214
O          -1.14483390777329    1.11090942567840    1.65446676598989
O           1.18085788137833    1.21598068108062    0.95898676076316
O          -0.04513944731018    3.23961531977239    1.49287278357507
H          -0.82904902764030    3.69842390338261    1.19985675298890
O           1.47181247906147   -1.37535676780492    0.64574268619235
H           1.46109141617095   -0.39524726091160    0.73926434898642
H           2.16384485849270   -1.69057046655070    1.23006503577776
O           1.11417157945048   -1.57175795744342   -2.10080923196783
H           1.37354940136800   -1.52976393145884   -1.16515509733385
H           1.05982313416559   -2.50008095233902   -2.33414877242654
O          -1.29542687547395   -0.35611022254029   -1.69435177815321
H          -0.45842475442709   -0.71916769073026   -2.04427649607988
H          -1.11667618095835    0.57809754632658   -1.49671303601274
O          -1.25597280434455   -1.17432805858604    0.74868610546867
H          -1.25677945504976    0.07838192397872    1.31184646600971
H          -1.41157874908646   -0.96192233378978   -0.22660268997852
H          -0.33095476003383   -1.47841057303044    0.80349428220577
