    19
        -40.91793130
S           1.53968350697845   -0.51475150267937    0.67133842907326
O           1.49957780019490   -0.70732508361768    2.10269471396575
O           0.71834943960603   -1.50804997939238   -0.03924401261108
O           1.20633811674603    0.83179535063963    0.25470715720912
O           3.02651481870553   -0.77385050389529    0.19958357176755
H           3.27351045875260   -1.58963036308981    0.62669041202089
O           0.25517589092843    1.16765714979098   -2.15432901017221
H           0.43953985248594    2.08705086287541   -2.35559128409502
H           0.69212176554729    0.99019436283770   -1.28739503143200
O          -0.74630949045454    0.63805589160731    2.20438807586491
H          -0.38679119228583    1.36689319555464    1.68492284496225
H           0.05032503730273    0.11308185359005    2.44566334259079
O          -2.18110743241484    0.37641221610238   -1.63153696335488
H          -1.27954199226421    0.72579139132506   -1.87239789114983
H          -2.44782938663038   -0.19351834221148   -2.35566747621009
O          -1.63176934126566   -0.96924056352579    0.44983568288477
H          -0.64589714390368   -1.31325673372056    0.20938594660511
H          -1.44732090006705   -0.30868077859584    1.21987777772704
H          -1.93456981796336   -0.41862843359380   -0.37292626564623
