    19
        -40.92174054
S          -0.12144928494905    0.22804749512747   -0.85790306802908
O          -0.66938850154926    1.14106229324941    0.22355999753154
O           1.32221621786428    0.32381632722547   -0.90695179146829
O          -0.62536317314213   -1.10420635891538   -0.69626731319354
O          -0.69934459870958    0.82573177203512   -2.15888830383984
H          -0.13070908113165    1.61063063076817   -2.37116723308050
O           1.25652826282649    2.51711132684995   -2.38866052955130
H           1.61544515025075    1.87349201110783   -1.75001044085415
H           1.79678081535820    2.45575493677986   -3.18066082914325
O          -2.05924090333501   -1.85541645783504    1.45450431003553
H          -2.99045542391223   -1.71061112733186    1.27892881563827
H          -1.59506121780554   -1.73256373799823    0.60479365140175
O           1.59689520384288   -1.30386802134875    1.23808061696031
H           1.73272426422602   -0.72597940358927    0.46908612098219
H           1.19226128330450   -2.10529879436103    0.89573514109916
O          -0.40446633671553    0.00009651803713    2.39922902591012
H          -1.09679795848311   -0.69440180591107    2.30657984393268
H           0.44663850361638   -0.46451194050086    2.21891683617662
H          -0.56721323168596    0.72111433605421    1.22109513939144
