    19
        -40.91955023
S           0.95849708604222    0.54449240721263    0.37589808544194
O           1.30895053644600   -0.82943239898560   -0.22485556829308
O           0.17829508338971    1.28100710503520   -0.59160426848992
O           0.36501361016447    0.40075427947164    1.66347939615651
O           2.34968765944051    1.19694422333415    0.50451745910432
H           2.64963326034040    1.29524346381427   -0.43425439282846
O           2.40282607912717    1.15120855728295   -2.09139583749514
H           2.45121838393873    0.22494986165340   -2.34371198590201
H           1.46267664052258    1.35095688342359   -1.95240052441951
O          -2.03842645253758   -0.88902665092115    1.55289239468523
H          -2.44343929627565   -0.28922992173081    0.89505376994014
H          -1.28634895494062   -0.39024847096239    1.90954909347731
O          -2.51077733664811    1.02076050999259   -0.30341716716886
H          -2.84886068441275    1.88108410398821   -0.04830322671427
H          -1.56611083312523    1.14588758093364   -0.50358619268433
O          -0.53317919224152   -2.47551660940164    0.18895303963355
H           0.55064673343372   -1.53354704937945   -0.08654167871248
H          -0.22828098590167   -3.15244274438953    0.79786514953632
H          -1.22202134676776   -1.93384514037403    0.69186246473271
