    19
        -40.90880537
S           1.11765765856679   -1.21226934253179    1.31697346361145
O          -0.32553240397504   -1.67497634333166    1.45795776737527
O           1.79525337090922   -1.99327759617593    0.33452165214984
O           1.15870155475214    0.21443897573039    1.16905886386433
O           1.75524108295980   -1.54760953363374    2.72233915862727
H           2.01932755802412   -2.46581528867081    2.71269569206192
O          -0.37538697370320    2.33790271806188   -2.35913879546282
H          -0.31830851155019    2.55462220998289   -3.29079963033636
H           0.22510481594393    1.59435513823814   -2.20749303369280
O           0.75012145901437   -0.12252852398701   -1.47600048148920
H           0.99010711358001    0.22351576631450   -0.60122961445180
H           1.19186132624163   -0.97628772265648   -1.52065552378706
O          -1.94481017314668    0.51532829649673   -1.00630938077515
H          -1.19001854365589   -0.03439829171472   -1.26607297533105
H          -1.74551877106881    1.38184429750999   -1.39567264089634
O          -1.54956142802172    0.47364201979378    1.57585183550937
H          -0.94621884415412   -0.81646073807898    1.57877701910847
H          -0.74742630526781    1.00973097235461    1.62865142359654
H          -1.86059395503722    0.53824297624130    0.62654521876965
