    19
        -40.92174072
S          -0.72972699341906   -0.48455445181224    0.19056969430082
O          -0.84591111607768    1.02804816610927    0.15370167544500
O          -0.58245864767273   -1.00624959612403   -1.15182774432713
O           0.29862059942249   -0.88946230259787    1.10358821960876
O          -2.09729440968999   -0.93621305572389    0.74757459788836
H          -2.72941062638335   -0.88535076880401   -0.01533907591609
O          -3.18912415977338   -0.92275785141531   -1.60778485622381
H          -3.54546163103095   -1.75338703050980   -1.93309966342576
H          -2.23775059674815   -0.91911251432768   -1.82175301713643
O           1.96269469660187    0.87043677208638    2.27741983638282
H           1.58144249210308    1.15869040388712    3.10844115318298
H           1.42020229258421    0.11963068544565    1.96988279466894
O           2.04293028756819   -0.35177719127240   -1.21895730669640
H           2.37141347739867   -0.89227147937186   -0.49567453192546
H           1.14652046323842   -0.67610108303380   -1.40609177963493
O           1.42610969923115    1.96863281369498   -0.08427223888870
H           0.11466534924356    1.52212226990320    0.02475774286948
H           1.77687326173411    1.78226638230296    0.81714597078300
H           1.81566556563843    1.26740983001987   -0.65828149116770
