    19
        -40.92136386
S           1.37664602180883   -0.17242646692025   -0.01483180385615
O           2.11404232859276   -0.24978915122710   -1.25152913833873
O           0.77049398890626    1.15478083321534    0.19204694276786
O           0.39465037535307   -1.21887075039557    0.15939841512643
O           2.42650551372280   -0.33361796038262    1.16524004545995
H           3.23660203930613    0.01771890311432    0.80662401571767
O          -2.08391160837362   -0.55070725622835    0.68555950476364
H          -1.26549196980104   -1.07624597736339    0.53259389360338
H          -1.86646837969058   -0.05186349507823    1.50384441737615
O          -1.38873917334605    1.04169161937628   -1.08084668348866
H          -1.86337347991206    0.38249383990469   -0.34732148001940
H          -0.52755169859670    1.29935209795211   -0.58408445309582
O          -0.56985597603618    0.71524093550028    2.47614655430828
H          -0.01115107533909    1.01221470351614    1.73316435085743
H          -0.01587333484705    0.14717636874854    3.01432781232453
O          -0.13385989923530   -0.59715832933293   -2.58064603994550
H          -1.03021373055677    0.43030031395033   -1.82009153531618
H           0.78406318421157   -0.44928192860461   -2.25777132886682
H          -0.34651313619741   -1.50100829968372   -2.33182349934286
