    19
        -40.92453645
S          -0.89914441020594    0.63699600357894   -1.05263578546642
O           0.46753788374949    0.66996650164446   -1.56135761831051
O          -1.35323902512931   -0.73789629797504   -0.87688821927297
O          -1.06379733942024    1.43431907763611    0.14461546354602
O          -1.82173136428967    1.29028104357976   -2.15578829397628
H          -1.73801354209291    0.72117694215436   -2.91545492920043
O           1.23069801569836   -1.67824665908602   -0.77598167773910
H           0.38595018930463   -2.13152464608422   -0.88088138590151
H           1.07762780842901   -0.79837043527068   -1.20600320738256
O          -1.27079107703599   -0.79233760646818    1.72176961408268
H          -1.43959537666608   -0.91082046863883    0.75377159044392
H          -1.53674638322645    0.11960445384595    1.88756651813326
O           1.43063601075779    1.59787956258393    0.85053084159830
H           0.46570062650966    1.73060866874667    0.68119110438009
H           1.81423013167828    1.57997176726658   -0.03433654632208
O           1.24630398315860   -0.80554959976494    1.58723324913486
H           1.35253925204143   -1.27410089277727    0.65859289174426
H           1.43240758108918    0.20553565350463    1.39024339859313
H           0.21942702564929   -0.85749305847342    1.78381297191174
