    19
        -40.91167200
S          -1.38449008073715    0.57597043473584   -0.44970097096767
O          -1.01352338645821   -0.88149845650937   -0.16378867865746
O          -2.21803655449884    1.06792725001932    0.59957596510076
O          -0.22641890558357    1.34501863000412   -0.78425427267505
O          -2.23198972940046    0.45433705442533   -1.76571341803748
H          -3.10591529332538    0.14704939308549   -1.53234585976903
O           1.70010175208544    0.11856814916333   -2.23265506289855
H           2.35533974057006    0.77568675644679   -2.47540555627564
H           0.96173056464070    0.60341273382326   -1.82344818512734
O           2.00486502277796   -1.34409533804320    0.03760233599077
H           2.03641617039148   -0.90946981806937   -0.83771724536023
H           1.24207452942205   -1.92590481886947    0.00588916155420
O           1.13156497952580    0.66535221595412    1.57817209716362
H           0.79462142153135    1.21025461254454    0.85659523546839
H           1.63628056369978   -0.05829755708997    1.13940453738367
O          -0.95145493362073   -0.68837259307419    2.30149871412580
H          -0.99726301063348   -0.95470525544546    0.89775651039043
H          -0.08846610208940   -0.18002576540195    2.27400441883150
H          -1.64543674837665   -0.02120760766614    2.37453030379938
