    19
        -40.92343664
S          -0.68222298844264    0.56867198066225   -1.43421754691753
O           0.69747072424073    0.80113557930715   -1.03725176216124
O          -0.98927986437059   -0.83839790251526   -1.57848738241362
O          -1.62377274370693    1.24387713178731   -0.53984532629677
O          -0.85458475121962    1.24270122735583   -2.84761690971130
H          -1.76984100380723    1.07476046285958   -3.04939548529716
O          -0.63810084878470   -1.81078072060411    0.82450632896153
H           0.34043747988676   -1.82789849735084    0.77249983120608
H          -0.91837159284336   -1.62451068648674   -0.10326712000774
O           1.90138826973630   -1.24047545359951    0.15875850403574
H           2.36298457379176   -1.83654303042178   -0.43258969029023
H           1.53105494159236   -0.52593409085838   -0.40521534932639
O           1.28190842292475    1.27894908609824    1.52250049947935
H           1.89899852142978    0.54731083460238    1.63418968125632
H           1.16920381480163    1.37108016012721    0.55350924220785
O          -1.11318236620404    0.45052767705123    1.75765480856574
H          -0.16650585154276    0.83978687107933    1.85078217536820
H          -1.45339482705611    0.86210972647790    0.85856491641879
H          -0.97418991040240   -0.57637034559231    1.49492056491715
