    19
        -40.92085437
S           0.31002587904636   -0.30827254268853   -1.35582079928886
O          -0.51686085613351    0.78046485971186   -0.89718578574934
O           0.85379301045830   -1.06892828296417   -0.12259252130506
O          -0.32441950227590   -1.20146498001190   -2.26693704909858
O           1.60773965215025    0.25029561497608   -1.96306932094135
H           2.04382965967119    0.74673369917522   -1.21062726773214
O          -2.42443925977519   -1.54121374608771   -0.54500768875239
H          -1.81134225530959   -1.36807422456572   -1.27846187078845
H          -2.71181780548732   -2.45219146687790   -0.64359722246594
O           0.01982345271937    1.78150712559027    1.41944148882658
H          -0.27832876617565    1.49295289216164    0.52313228933402
H          -0.27580297097589    2.68760146322123    1.52541508390390
O           2.45598481905262    1.25985644994025    0.27478018941895
H           1.66668963060623    1.53650062368709    0.78520118673137
H           2.77283033179349    0.45680181848770    0.69695921386021
O          -0.95629439654701   -0.92345501991967    1.61702017398827
H          -1.68578232208068   -1.06073712260424    0.97472593516680
H           0.16234475713933   -1.08990520627876    0.64720379476860
H          -0.90797307783098    0.02152803506219    1.81942018012640
