    19
        -40.91833710
S           0.66049467727517    0.02784609946081   -0.75157296688414
O           0.98380627653112   -0.92447099777053    0.27536826897712
O           0.50125826378004   -0.48536516956641   -2.07439361789186
O          -0.67058744524717    0.73524368547444   -0.31632725373818
O           1.65790150429046    1.18346207681228   -0.74426497890811
H           2.03414427472663    1.23537290017660    0.21390751991159
O          -0.14214748254662    2.14690068199886    2.01484895039166
H          -0.48138016154105    1.73607935913613    1.20343146305020
H          -0.28684579405294    3.09125741337618    1.93156329770189
O          -1.46007060315318   -2.30870943639908   -2.21027829660025
H          -2.01857564602806   -2.09421136687903   -2.96012348409110
H          -0.66149868011043   -1.75213230387596   -2.29353223569687
O           2.27096190312010    1.01965073839921    1.69169087097078
H           1.48616218692006    1.47505916783036    2.06430905943457
H           2.04688429014076    0.07824513390170    1.66298797372301
O          -1.79321605443061   -1.43787282736669    0.26976738615045
H          -1.27960498288993   -0.05142569163413   -0.05455539485092
H          -1.84702646492105   -1.87988975684911   -0.61115625127849
H          -1.00066006181313   -1.79503970625486    0.68832968961999
