    19
        -40.92136387
S           0.84751613136029   -0.46589778976286   -0.99282748140638
O           1.15573312516729   -1.86789268498507   -1.12843579710796
O          -0.55296472907612   -0.14620996252752   -1.15465063899973
O           1.37362217808814    0.10401467011711    0.26004116234810
O           1.62418252288686    0.29576197988724   -2.14956897022297
H           2.38481404423804   -0.25236576744065   -2.32012052504054
O           0.41389098384426    2.60405524176101    0.07181871437884
H           0.92054904305039    1.77518575227957    0.16336706287686
H           0.47419280826898    2.85060840784742   -0.85276088172121
O          -1.76413962359479    1.21567524308158    0.72780003004663
H          -1.57551441899191    0.74126186422156   -0.11405076876079
H          -1.15818504299318    1.98765511452695    0.67661375494407
O          -0.83723087120589   -2.46726515000097    0.48827338916785
H          -1.58722767875034   -2.29814085796895   -0.08872697658217
H          -0.04684238110996   -2.42794743213487   -0.09679513498026
O          -0.38832520536842   -0.43353833037576    1.96308590888401
H          -0.65716010736773   -1.32646181172501    1.54021096528151
H           0.46174293540701   -0.19892803169253    1.43673047931592
H          -1.08865372389813    0.31042955489113    1.56999571755671
