    19
        -40.91799433
S           0.61228279235655    0.35830195551112    0.72414963237081
O           0.55957594695074    0.19464798784200    2.14072951658771
O           1.03018316264839   -0.79275714024368   -0.03350031917715
O          -0.80360132444129    0.76591369822102    0.19151868328399
O           1.46048630278120    1.57300879553508    0.35843700064788
H           1.79053567307330    1.41813302315083   -0.60558565400774
O           1.99858432747470    0.85444133424704   -1.99314831888313
H           1.15198129688349    1.10928443897105   -2.41854390886760
H           1.89511896011597   -0.06687008778257   -1.71545432102444
O          -1.10094045403446   -1.82371058201952    2.76315639775936
H          -0.59879419138522   -2.51047980312688    3.20605386701599
H          -0.51770820622201   -1.04242759814662    2.71807066674733
O          -0.54078557541744    1.58205942216232   -2.45064471304505
H          -0.80468107032962    1.36825198735894   -1.54149826311737
H          -0.81528121552770    2.48585640386714   -2.61648201074915
O          -1.61654292774611   -1.61656182344667    0.15994506272484
H          -1.31517069456504   -0.12401012233052    0.14928830247406
H          -0.75175764992562   -1.90707593021261   -0.15791588272639
H          -1.63348517269255   -1.82600595953304    1.12142427203101
