    19
        -40.92158995
S           0.72329565153893   -1.28363253238705    0.09353078340117
O           1.04775772576330   -1.80417415005473    1.39371746983216
O          -0.69781309627742   -1.10521897297144   -0.16371727540384
O           1.46219038499269   -0.05263403768127   -0.21677813485763
O           1.19992966807405   -2.36009542344278   -0.96730391817456
H           1.98863726088425   -2.73145930113144   -0.58391198559382
O          -1.40909894070597    1.16828710926488    1.03921279506595
H          -0.74180852935093    1.12934479897394    1.76480857867660
H          -1.46214929489052    0.24206635602430    0.73138938361659
O          -1.29356868957795    0.09754668102351   -2.41185967589794
H          -2.24697702268655    0.10322236486604   -2.51820826404001
H          -1.09417767843613   -0.53806043434909   -1.68455356894404
O           0.72078887111651    0.59860028515184    2.49457619105262
H           1.51644090451034    1.03283515428407    2.17807594571881
H           0.83555713437084   -0.34578209951377    2.27145793345270
O          -0.03783009338892    1.77745118203900   -0.94872593001538
H          -0.54386439970183    1.29632625528126   -1.68607694715949
H          -0.67633606472382    1.69811447374350   -0.09256115630890
H           0.70902619855024    1.07726229135800   -0.69307220449726
