    19
        -40.90224906
S          -1.66818831510707    1.67755997205078   -0.28996153898871
O          -1.75921064017087    1.80457079299135    1.12153315052585
O          -0.35897950535496    1.69697370811202   -0.87660543366676
O          -2.42949698165468    0.42298262891220   -0.76705606327428
O          -2.50448594422499    2.82509585155825   -0.96332155100934
H          -2.28359466878431    2.83872277359436   -1.89332254097980
O           3.30921389541247   -0.89531883354772    0.89433408119932
H           3.48820175721437   -1.42678796402250    1.67142723096183
H           2.41030231541826   -0.54177936040529    1.00205041047300
O           2.07657755083479   -1.82156568494507   -1.38983616538341
H           2.29471325785831   -1.26436211541657   -2.13903779578485
H           2.76334462189554   -1.65838053933593   -0.71821051032585
O           0.57378465478437   -0.47595486412487    0.42795652424855
H           0.39005785095053    0.37106327002383   -0.01295382607322
H           0.88736840591299   -1.07822772805406   -0.28063977390993
O          -1.89475461292011   -0.97288598063374    1.25978666577160
H          -2.34121055172174   -0.26648058638625   -0.01026536327489
H          -0.92518219078840   -0.97891717891526    1.07291345903637
H          -2.02846089951290   -0.25630814150896    1.89120903044868
