    19
        -40.92182563
S           1.05449491188138   -0.52293194128242   -0.05238868803964
O           0.01579855848220   -0.89132210170152    0.99932649822838
O           2.17271807226488   -1.39645519719295    0.07526363951126
O           0.43876706344086   -0.40916845164199   -1.34759885962612
O           1.47763311366875    0.93285090573058    0.35400101274809
H           1.96206711800477    0.79893892575545    1.20428320654228
O           2.54160387990413   -0.20047989124168    2.43798279721432
H           2.73276475604586   -0.88167587236093    1.77134375786834
H           1.84012444641980   -0.55509223192228    2.99103659351161
O          -2.13414931600278   -1.18418480184077   -1.85656846209254
H          -2.42399232977168   -0.76315461093339   -2.66857215341411
H          -1.16836039207098   -1.07706876643168   -1.82141004200999
O          -0.78519085587777    1.98200632467107   -1.03421421127928
H          -0.27896567467342    1.21624482200307   -1.35749316818533
H          -0.14705226862946    2.54357207105443   -0.58892044302553
O          -2.13135021266525    0.20115312097271    0.42058517673141
H          -1.81338474827807    1.02328937536397   -0.02045303475820
H          -2.40857597534811   -0.38413315640119   -0.32058212156499
H          -0.94495015298369   -0.43238850572414    0.81437849953792
