    19
        -40.91923806
S          -0.41161013028844   -0.02631973593846   -0.88240565327433
O          -0.09590760160517    1.30099883349112   -0.41263339817203
O           0.03262152308257   -1.04347919167714    0.22120202801865
O          -1.77633820044902   -0.27372227993759   -1.20406036564501
O           0.51391863289822   -0.38202729631102   -2.04413257140252
H           1.38897904230101    0.13863175717796   -1.88517622644161
O           2.47933115085602    1.00743587186882   -1.29857485280488
H           2.81449099602537    0.44755820678566   -0.56485957411738
H           1.87312811206470    1.63969043258040   -0.88846758866338
O          -2.22007665576718    1.41943077804532    1.23976496292714
H          -2.92950284910297    1.69312782832468    0.65368255505870
H          -1.39747315120239    1.54654268066645    0.73411306842103
O           2.74963875825444   -0.77087331788798    0.68805648569223
H           3.17294303453703   -1.62453023162732    0.57776194807720
H           1.79286482479295   -0.93045072495738    0.69515718328660
O          -2.18520535384607   -1.23360727088007    1.39989360580290
H          -2.71449521591390   -1.41458061715427    0.61524884159452
H          -0.80206405257424   -1.22950319372548    0.79359294601012
H          -2.28524286374490   -0.26432252939322    1.56183659559557
