    19
        -40.91597558
S          -1.10934314118125   -1.46357403733583   -0.03306318569620
O          -2.29881567928630   -0.71279454980178   -0.39476355052917
O          -0.04495969321541   -1.25997985569840   -1.03507088570366
O          -0.64627208098623   -1.23364205267833    1.30742545183682
O          -1.48892400731328   -2.99357610488293   -0.14264912454511
H          -1.87529854528622   -3.04908561835748   -1.01111456868066
O           1.76535490167172   -0.43690770102367    1.91953890857151
H           1.65083694201004   -0.15596154157857    2.82946268368373
H           0.89277608027137   -0.81321641546418    1.65303723293066
O           2.38762767381292    1.38910214088636    0.16794948962517
H           2.16099462085646    0.72501346581267    0.87873611279804
H           3.20601592065509    1.08084193337110   -0.22659694508748
O          -1.72536559848740    1.79878093063500   -0.30527012108130
H          -2.03423965093611    0.85496768488157   -0.23469558896823
H          -2.39981483967086    2.26289435549681   -0.80591532125940
O           0.44372493328419    1.11472034138292   -1.43091396655927
H           1.24610200305268    1.29946985744612   -0.80106919959104
H           0.25759321780418    0.05763306371830   -1.33250487454211
H          -0.38799305703922    1.53531407316889   -1.00252254720568
