    19
        -40.92453837
S           1.51299488038973   -0.18087738967307   -0.02611657322944
O           1.22912681694227    1.05724372383068    0.69154236080502
O           0.95715883934588   -1.32836057809282    0.68158344751245
O           1.09562056333694   -0.12802634264469   -1.41148263927723
O           3.08261942698611   -0.35702721210228   -0.03829652153275
H           3.33482410348591   -0.38120316970952    0.88018476856728
O          -0.57198349034132    1.85557542451634   -1.23972198426225
H           0.08968498111598    1.17270051283208   -1.51050190431720
H          -0.12269227733744    2.33757800911872   -0.53528327431590
O          -2.15549477913251    0.25837734484070   -0.10146274043184
H          -1.62608081440889    0.99624327217113   -0.62151827100717
H          -1.75038434107179    0.28010255111369    0.86221136330318
O          -0.83223433906764    0.25468226735759    2.04229614408051
H          -0.55257865422487   -0.65889337049011    2.17387191795862
H          -0.02720696695953    0.69182629027896    1.66405644483458
O          -1.00718786471182   -1.81862624016782   -0.95005785777865
H          -0.56675582328658   -1.57881328973028   -1.77363448557296
H          -0.27233029716795   -1.82394095622595   -0.28702999283468
H          -1.81709995408504   -0.64856085763623   -0.50064022261405
