    19
        -40.90733252
S          -1.82660355231319    0.23157893705292    0.38495399292202
O          -1.64165532737736    1.02009034126004   -0.91466676391948
O          -2.08956684495096   -1.13935892344006    0.09012498364462
O          -0.77884358765853    0.54417135255181    1.30219838272341
O          -3.15821031669474    0.84576918981054    0.97425922418129
H          -3.88369405964835    0.38312740602866    0.55980494168407
O           0.33077946633623   -1.49586075998030   -1.15029518500911
H          -0.57519795930597   -1.54298994574007   -0.81485294287791
H           0.84250394461372   -2.16160647426663   -0.66294899246852
O           2.44885987940770   -2.35480554211401    0.47518730340844
H           2.49672410506961   -1.39523786176932    0.59288809452479
H           3.26156911586752   -2.61848246938034    0.04047629503673
O           1.66916263304776    0.40674131183498    0.14351820965211
H           1.02945095935893    0.37455484289427    0.87189205815781
H           1.27953437156652   -0.19562337593093   -0.53194659157562
O           0.31120561562349    2.57091027995002   -0.51302722871903
H          -0.87349605763558    1.70178523795820   -0.82415504108964
H           0.15283293559638    2.95263912149426    0.35453509733833
H           1.00464468907132    1.87259734180281   -0.37794584760488
