    19
        -40.91907697
S          -0.06515673064099    1.63490139045026    0.32311865677525
O          -0.15977389370623    1.03504707348416   -1.02491595324413
O          -1.36316161288930    2.01900893123543    0.82644373719209
O           0.69074828779102    0.78299390485510    1.21196775910538
O           0.77377751574306    2.96299387432534    0.12816244562897
H           0.14144051746555    3.61931415446749   -0.15287105789029
O          -1.33912241559830   -1.12483184892432   -0.70646025859957
H          -0.54813198568758   -1.80013208311239   -0.70126027702449
H          -0.89960129750001   -0.19881730561344   -0.95692669511424
O           2.16320827153777   -0.36313071042877   -0.65413335343316
H           1.88851457219325    0.00705990296325    0.20791715981192
H           1.67331590196086    0.17992042786609   -1.28531268196235
O           0.74666944206655   -2.55097266545980   -0.67697003664476
H           0.96492120710548   -3.05852638579937   -1.46070919937646
H           1.40429259893727   -1.79732477096568   -0.62754030829532
O          -1.73846084001634   -0.42869994417593    1.68817273872843
H          -1.61797699913347   -0.97602135395426    0.28499933399530
H          -0.85321589934419   -0.47218890704237    2.07239845308543
H          -1.86228664028134    0.52940632591269    1.50391952726079
