    19
        -40.91865338
S          -0.74097627079884   -0.13895702842632    0.66286998365704
O           0.08359333664911    0.78905531777204    1.40095655525030
O          -0.99635124812698    0.44810253373890   -0.72686576549668
O          -0.24046111027452   -1.47181694821051    0.54721225421838
O          -2.13708911619974   -0.18382762957912    1.33359671640745
H          -2.33583225710853    0.73588748117441    1.64698535565735
O          -1.98155166826663    2.27097725936047    2.18327408309985
H          -1.05636284616391    2.07677357232700    1.94770018196398
H          -2.00614450440064    2.40079271602080    3.13474595047479
O           2.03387218238715   -0.49727711725391   -2.32176422395299
H           2.25509856030220   -0.43281559191056   -1.36693446121958
H           2.11432950574720    0.38868036477460   -2.67858982883392
O           2.33739378271512   -0.34412345116203    0.35390977389223
H           2.07456411248041   -1.22787430306626    0.62772004149423
H           1.69705334347388    0.24683866964035    0.77861790523482
O          -0.41605074515680   -1.47321886937533   -2.20621498273491
H          -0.85128935246373   -0.30239495174134   -1.44150942316678
H           0.51424618960966   -1.19972302884635   -2.41394456973950
H          -0.34804189439763   -2.08507899525423   -1.46176554620789
