    19
        -40.91103822
S          -0.27923513174608    1.23642604993818    0.85511080416461
O          -1.28551170828216    0.18367164411175    0.59881683511502
O           0.42218808333396    0.96760837522359    2.09422077981772
O           0.59034029305981    1.41949685790634   -0.27881732100283
O          -1.09778469134424    2.56225102785118    1.04458666508507
H          -1.66163257653753    2.38604178163854    1.79202745022913
O           0.85846569528297   -0.42460719479732   -2.06137299995592
H           0.77439833102824    0.38514747535538   -1.49019611373509
H           1.77542186063843   -0.46633912786576   -2.33993485992818
O          -2.09904213566494    0.37954419146730   -2.08615741992071
H          -1.24633454995750    0.18713207173121   -2.48369232625841
H          -1.95980839467870    0.39745641239976   -1.13100947911710
O           1.71838300811103   -1.20699015904412    1.60199654806262
H           1.78904904086402   -1.69365216696023    2.42648401352734
H           1.32937670049100   -0.31986834798361    1.83623005378775
O          -0.02087895557697   -1.80737900537609   -0.12561400640369
H           0.74229337419001   -1.71808514060014    0.56623452295397
H          -0.69307746742433   -1.04460731337526    0.18913542769787
H           0.34338923422242   -1.42324743157777   -1.00804857414258
