    19
        -40.91107199
S          -0.89153748400743   -0.14688913745375    0.17032152869019
O           0.06446500389076   -0.66404576162680    1.12139238546615
O          -0.12450575734965    0.48400130623954   -1.01282527648075
O          -1.85393592042851   -1.08426229006547   -0.30293126820619
O          -1.60233349723476    1.07548281782802    0.78233794280456
H          -0.92534137743625    1.59482219530037    1.27786566862280
O           0.68522748781041    3.21899448063077   -0.33419267947276
H           0.44179757305330    2.41818560592749   -0.80768579876692
H           0.90054195714642    2.94955002519466    0.56352486936389
O           0.55254175050080    1.70799625477726    2.15079790995829
H           0.67398717329333    0.76481355475104    1.92636303640087
H           0.52982055504529    1.77375156028546    3.10832228909181
O          -0.00068039274639   -3.05896085762256   -0.30662591386004
H          -0.90667460822519   -2.71448340168550   -0.32890746462120
H           0.39399303335910   -2.64641110068177    0.47051790280147
O           0.82007862260581   -1.50172182533679   -2.26474739790611
H           0.63697716959766   -2.21597988109165   -1.59978164541665
H           0.28941859810320   -1.70281831144083   -3.03967719589967
H           0.31616012285371   -0.25202522395042   -1.57406890251028
