    19
        -40.91418264
S           0.94860430046050   -0.87651353647803   -1.25456755954447
O          -0.35052972542131   -1.24865367635468   -0.53998256436528
O           0.64988172483572   -0.34272975628100   -2.54380184257911
O           1.77680200528121   -0.11466678419256   -0.37395584398225
O           1.66045658272561   -2.27069622292680   -1.46982448343701
H           1.33442802385090   -2.64834388195523   -2.28463906006431
O          -1.01961058634391    0.87437075797905    2.52277323460252
H          -1.39688553054714    1.07931579673849    1.62957061169276
H          -1.76710213741814    0.73713978496539    3.10671523740092
O           0.24956874600948    2.05750858037461   -1.28628485298728
H           0.29699778464493    1.46151699673148   -2.04557648236224
H           1.00944445700462    1.82856481044257   -0.74107221079314
O          -1.90844908918324    1.11527659965705    0.04386958255603
H          -1.80345877758558    0.22648548200746   -0.31183410387659
H          -1.25176707706559    1.66249876646606   -0.43291014805360
O           0.45432092420268   -1.13227395243566    1.78248183744513
H          -0.08943850268018   -1.28853876890965    0.51052415961005
H           1.29151800752203   -0.73381965276737    1.50444725282320
H          -0.08478114051399   -0.38644135322792    2.18406724595387
