    19
        -40.91451125
S           1.42551555561986   -0.00153018160687   -0.60032401574520
O           1.61711505246859    1.39667123905680   -0.37608720361969
O           1.41684544121668   -0.75036590165700    0.71968576181521
O           0.31634213656946   -0.39811833038743   -1.41321108385767
O           2.72380123941728   -0.54112154727414   -1.32247383963869
H           3.48107223230197   -0.09296320294633   -0.95030462264501
O          -0.82310483367785    1.39415227942131    0.97672406496064
H           0.12771440039319    1.49383836876461    0.85999406582064
H          -1.20772008821410    1.69440465033582    0.12984358917841
O          -2.01049103018450   -0.88278505061051    1.71812076100089
H          -1.63744119116310   -0.00968664702768    1.45782310239869
H          -1.96056261706068   -0.91956664661438    2.67475320027940
O          -1.07562003923779    1.95526584090343   -1.66351245340334
H          -0.71475332114149    1.06493619444183   -1.79218081140284
H          -0.32669257257328    2.55287350286191   -1.72746260628057
O          -0.39054747700656   -2.38000317586558    0.34571232401060
H          -1.10593696080556   -1.94017008312343    0.89127211046335
H          -0.54454760471580   -2.09469291195824   -0.56535945961425
H           0.68901164779186   -1.54113838672037    0.63698712626492
