    19
        -40.91483132
S           1.39303836491521   -0.49725224154492   -0.11384810654938
O           1.31127281637303   -1.80189697306595   -0.89332651611895
O           1.01606104878305    0.60985299704030   -0.95380443977003
O           0.71971975142927   -0.60539949057963    1.13603443326254
O           2.93044217959625   -0.36605503973861    0.16297063559575
H           3.36098241512447   -0.16870349519850   -0.66672936628335
O          -1.66000711987970   -0.18591671387095   -0.86969007615850
H          -1.83418445888901    0.25927280563844   -0.00295654294472
H          -0.83267822934691    0.19470597358070   -1.18826224600471
O          -1.54493258648106    0.97838517140826    1.51232575909434
H          -0.79175397186466    0.42336660709437    1.75363948605329
H          -1.15036204849570    1.82709983856202    1.24439220761969
O          -0.04429260203088    2.86703237142829    0.19603967227436
H          -0.44724534366518    3.38804517333403   -0.50138670290236
H           0.42354463182529    2.13567738246468   -0.23922173264092
O          -0.93513487940218   -2.57024375226714   -0.18906050300748
H          -1.39735047769915   -1.73772130883784   -0.51000788694800
H           0.38294867383119   -2.25278708375710   -0.64733883133155
H          -0.90006818412609   -2.49746221166627    0.77023074677269
