    19
        -40.91329949
S          -1.34656843788261   -0.64740577785143   -0.81954285825607
O          -2.25041560427271   -1.05308472246333    0.33446409227433
O          -1.18223069798988    0.77990972333191   -0.81787741516191
O          -0.14276320355723   -1.41400653142067   -0.86882470917819
O          -2.19936540231102   -1.05130214794572   -2.07270809077064
H          -2.97237522061688   -0.49029421895505   -2.11060582548547
O           0.97573551273792   -0.77629513681601    1.60790357239543
H           1.62770683603886   -0.08204276055351    1.36336768080437
H           0.74503006992022   -1.22870845562544    0.78479415275265
O           2.58115074606470    1.12427548926397    0.60125336405601
H           2.22362802029270    1.09190383341147   -0.31376568728191
H           3.52915928326893    1.00486165240446    0.52885436059135
O           1.37600565203236    0.72031973098316   -1.76928368488157
H           0.51006082268040    1.10183602272205   -1.56604099313355
H           1.22804223025374   -0.23253283158398   -1.72431811203691
O          -1.26165659538804    0.41900074866404    2.05685158869793
H          -1.93513836635546   -0.46525752689649    1.16586467572245
H          -0.35833352844505   -0.02860549522270    2.07435785514826
H          -1.14767211630570    1.22742839439859    1.54525603375537
