    19
        -40.91898049
S           0.69651263370205   -1.14443229944194   -0.93092009712639
O          -0.23366940508886   -1.80973086245013   -1.80457218883658
O           0.84309214160217    0.28613877770805   -1.25197523185355
O           0.40954569944577   -1.31207019122469    0.48488811883502
O           2.12395017564906   -1.78421258212495   -1.17489074397876
H           2.12958605037207   -2.04591423944626   -2.09177584297886
O          -0.52887919745722    2.03143701421504    1.73812693947239
H          -0.97029542911726    1.56931365422690    2.45378817174129
H           0.39928146965314    1.66249015688944    1.69402872903325
O          -2.15255096165930   -1.01322707463426   -0.12688422917138
H          -1.40605348998405   -1.27272248783543    0.44520502015566
H          -1.93529222244583   -1.45946594830848   -0.96271205493084
O           1.73940100100598    0.79620112215582    1.36659394912427
H           1.34772012158389   -0.08403902243365    1.18893551758022
H           2.07481510313883    1.08646871605193    0.51280999020127
O          -1.29551430234296    1.33308379060039   -0.56369778099596
H          -0.37494852536141    0.99090826294685   -0.95438357707624
H          -1.81373189600023    0.45281899541605   -0.39924297357818
H          -1.05296894672689    1.71695420766732    0.37667827439333
