    19
        -40.91907732
S           1.24474709914467   -0.90852755717452    0.63684909734051
O           1.49061657485949    0.48041489820320    0.32446879437406
O          -0.19167300391736   -1.14147013853264    0.89806449023053
O           1.76630414211014   -1.83959394866997   -0.33623783397237
O           1.97108722554696   -1.21145299060977    2.01037982291635
H           2.10801563815592   -2.15517657938013    2.01804733331682
O          -0.55563215220884    1.45457565301305    1.67762127146333
H          -0.76112894485810    0.53612756775685    1.89628505534122
H           0.32715448624364    1.38512296404815    1.26390402309572
O          -1.35586314850432   -0.52084920693707   -1.20367156536976
H          -1.69685644188159    0.43655709332258   -0.98289550314754
H          -0.95223028445907   -0.87757543033783   -0.29645750100571
O          -2.02676100454396    1.79506458595976   -0.44721425148050
H          -2.93568364465661    1.94346046779383   -0.18008564548810
H          -1.47322850113728    1.81153805129037    0.38710289717233
O           0.92305419575540   -0.27495929824542   -2.26376572646477
H           1.27433926780206    0.51379984046636   -1.83052960966545
H           1.35060903359339   -1.01443383614825   -1.77628432252770
H          -0.50687053658013   -0.41262214567003   -1.79558078601777
