    19
        -40.91974991
S          -0.80477440991803    0.11977760250934   -0.21651605238749
O           0.24179483839854    0.71772059473792   -0.99839947689976
O          -1.66024548867348   -0.79679020006588   -1.09378326397816
O          -0.31136484264127   -0.61182867111894    0.93219975432417
O          -1.83048155489689    1.15926317697811    0.24287291602029
H          -1.41044630410628    1.84662935319436    0.86992677197472
O          -0.61695012702557    2.70540132772890    1.86124667379055
H          -0.88386190931562    2.52425878471353    2.76574969369479
H           0.29856753180032    2.33717743072482    1.75369127114183
O           1.55590448799832    1.30986746199365    1.36176087727981
H           1.10729254657424    0.45834058026566    1.48152786036678
H           1.62840642330331    1.40528139250035    0.40397362060222
O           1.00642779388476   -2.57150341930893   -0.36976326147117
H           0.59637544635113   -1.91072682116830    0.21791272223872
H           0.70926668615201   -3.43047998805622   -0.06264202889600
O           0.18357056242274   -1.48136513221414   -2.67444009796789
H           0.63947400013548   -2.03334153991415   -2.00254958266273
H          -1.05201940272276   -1.13464565900954   -1.84980090943271
H           0.60306373226823   -0.61303625444079   -2.62296747772748
