    19
        -40.92174063
S           0.65943689531272   -0.34313654277344   -0.49787642322950
O           0.24553132489539    0.62064808848305   -1.49570812893723
O          -0.28456999812073   -1.39477916430882   -0.25708450018309
O           1.99946779891099   -0.96822731873231   -0.94256650303559
O           1.01267650824881    0.36423633009680    0.79738640310377
H           0.13667966618435    0.64460542117609    1.37812210725447
O          -1.08713911101744    0.86707852175109    1.99799774497974
H          -1.33371768051945   -0.04202709641007    2.28646494843451
H          -1.66140098935262    1.05034264284412    1.21723933570919
O          -1.45591576509478   -1.76271957280458    2.13825193871786
H          -1.09215944098712   -1.78866175502379    1.23293422731312
H          -0.91600361758240   -2.35413252402312    2.66518312889917
O          -2.22259107700149    0.82568105609305   -0.40235630893868
H          -2.52784506664736   -0.07951773669922   -0.50561274746551
H          -1.42623824577534    0.90081042397947   -0.95348289024357
O           2.74216470869083    1.20223172169169   -2.15740430946003
H           2.90839592142713    1.14093138554748   -3.10153368460453
H           1.78405221437012    1.34605869100010   -2.04687190763034
H           2.51917596405700   -0.22942258186374   -1.35308243066276
