    19
        -40.92174068
S           0.38917107605328    0.78815585471452   -0.17251638473151
O          -0.61269025098977    0.57830675868514   -1.17608897952696
O           1.59755585594622    0.01227273895968   -0.35671527353352
O           0.76440624497951    2.28570118453991   -0.14759906568313
O          -0.18243621015049    0.54453220904750    1.21204608333440
H          -0.72960893621226   -0.39269198316590    1.28322696718680
O          -1.42960512679558   -1.58774758754368    1.16429364660757
H          -2.21024726559164   -1.31158982513743    0.63066028654846
H          -0.85261542738703   -2.08051217217216    0.53423393310291
O          -3.04096553581505   -0.43507314752706   -0.60963307974573
H          -2.23150990143374   -0.02438587317641   -0.96860159214360
H          -3.64163297694915    0.28291633037796   -0.40340704825745
O           0.18597926191037   -2.24633975201100   -0.83822107600893
H           0.87529949082753   -1.57404009619686   -0.70943599960225
H          -0.29197108072992   -1.98339584567460   -1.62911711518985
O           3.09289294266245    1.80399489311371    0.89328197246785
H           3.86348403633353    2.07415316105622    0.38731333160432
H           1.62450305526722    2.34045518746160    0.34416560233160
H           2.82999074804976    0.92528797463277    0.56211379124108
