    19
        -40.92174069
S          -0.61222779844401    0.28132981330320    0.59238343115592
O          -0.42924636693027    1.57981822142876   -0.02091747834564
O           0.51616559807448   -0.18823949230469    1.34155726473849
O          -1.83952826572348    0.34608107993921    1.52713481124536
O          -1.02004033590457   -0.73840905889827   -0.45477630503123
H          -0.18016966165507   -1.09366094347601   -1.04832729866359
O           2.01393684618268    0.89438690420187   -0.96287914322629
H           2.47381552237826    0.72613612457603   -0.13619431283378
H           1.18971056483490    1.34752606179546   -0.71994559760962
O           1.86149130514051   -2.42216134190926    0.67715245694098
H           1.46957205620498   -3.17190710261617    1.12796018632688
H           1.45982796657161   -1.62306790065662    1.06824011017862
O           1.01317915760636   -1.46633370564142   -1.65443617631854
H           1.43514648849862   -2.00939171903179   -0.94905754912822
H           1.50379945296943   -0.61076922706357   -1.64381800485439
O          -3.02226671607867    2.11201253572359    0.03627143393543
H          -2.50489894098969    0.91393385873078    1.05914769719452
H          -3.22818890238371    2.96031010239499    0.43712703878404
H          -2.10007795036582    2.16240578949635   -0.27662255449147
