    19
        -40.91898877
S           0.07429452096888   -0.43451263769809    1.00521638844705
O          -0.84809812199382   -1.06499497414350    0.05020575953104
O           1.38697449522344   -0.25890669124494    0.41940428494901
O          -0.47400763807654    0.83255393900302    1.49487777859582
O           0.17695381977377   -1.36841475478316    2.24345312378910
H           0.30061605369263   -2.26174815020355    1.85835357422220
O          -1.39300636629956    0.70030430383013   -1.77095363713271
H          -2.34474758736023    0.67689480415967   -1.89123149371655
H          -1.17801089073696   -0.04263431382869   -1.14495558528164
O           2.05036789209076    1.94294988033200   -0.75086940404597
H           2.27538943910979    1.68613317467982   -1.64802118270052
H           1.94762027589764    1.09377970185769   -0.24167976218839
O           0.03884677067329   -3.46972151661583    0.66051160005300
H          -0.33054726367789   -2.71598795738355    0.15989401058548
H          -0.68892342801608   -4.07330213699880    0.82730502939368
O          -0.36529376353462    2.50512658832812   -0.30726923757784
H          -0.44286456724971    1.89166670036984    0.56908311030490
H           0.64811066884811    2.44479194755712   -0.53010801112594
H          -0.83367431933211    1.91602211278167   -1.00321633610982
