    19
        -40.91966071
S          -0.59066099160865    1.26637944464575    0.98964735720873
O          -1.59416063076869    0.23682446353938    1.30078702395994
O           0.66965566529239    0.97494946581966    1.65518894232112
O          -0.45143944721845    1.46390848474056   -0.43183964388296
O          -1.14017060335435    2.60685952833955    1.60559385765637
H          -1.19033622747688    2.40992591422876    2.53593572647951
O           1.61871388843021    0.18435063334550   -1.72972951456806
H           1.13514650393526    0.89917148319524   -1.28413480521992
H           1.96046552466450   -0.37789161992339   -1.02502034941760
O          -0.87336433574249   -0.51763750927670   -2.24830770643700
H          -1.14140037442795    0.35019194091660   -1.90379442586308
H           0.10291832636092   -0.41366103537546   -2.36163452661122
O           1.49036653265212   -1.26350388559520    0.72006445327663
H           1.92185314624999   -1.76645097533512    1.41336640030109
H           1.25575922764959   -0.37618265147506    1.12028275547217
O          -0.92807571166365   -1.71174704812251   -0.05855794754433
H          -1.32855938744900   -0.93847211274215    0.55204336765522
H          -0.96447833866089   -1.30495836625265   -1.05318467956662
H           0.04776723306572   -1.72205617468088    0.20329371492640
