    19
        -40.91893383
S          -1.23209717192471   -0.53461218446551    1.10458539019417
O           0.03189106519177   -0.05383431632188    1.62659957886374
O          -2.28347425851139    0.44875550294289    1.04342649184276
O          -1.04491082045706   -1.22541614618884   -0.18045334383437
O          -1.72236724186877   -1.65422213966848    2.11806008202131
H          -2.66530387158974   -1.66659906398714    1.98458723780855
O           0.42980810742863    1.29657572177671   -2.30346317411448
H           0.09171405106462    1.70110801240047   -1.46011204267330
H          -0.31192019020559    1.28951206916909   -2.91165916242408
O          -0.53282317967500    2.12234389422340   -0.00648070467857
H           0.11150825168588    2.00799951739428    0.69851848687681
H          -1.31992354160867    1.63212102342462    0.30652968799523
O           2.37815593006457   -0.58399473204208    0.66619851427164
H           2.74316158912243   -1.32697386118079    1.15025827670655
H           1.54091454365485   -0.33048864727477    1.13447495094845
O           1.04782248270533   -1.00402612333027   -1.45414943884689
H           0.88324129137464   -0.07884453080034   -1.88982061603386
H           1.72337079479868   -0.85745815434613   -0.69713245850769
H           0.13123215865663   -1.18194586148019   -0.92996778640154
