    19
        -40.91793140
S          -0.75331397072797    0.62190195446033   -1.45969803895888
O           0.55541420933365    0.00680220206201   -1.37880538662513
O          -1.77484590430802   -0.25247227301479   -1.98843864924729
O          -1.14606328547485    1.20548537466243   -0.16685067561428
O          -0.61263488485424    1.84328385059725   -2.45408331882951
H          -1.50913954144816    2.12651722005472   -2.61225179982561
O           1.19880281145089   -0.23745994987903    2.46134522643904
H           1.17463278540643    0.41344603181267    3.16565056529537
H           1.65917345506688    0.20195697052984    1.69463121499850
O          -0.85939618028219   -2.20093867765335   -0.49536649188144
H          -1.38967252678304   -1.66940473748670   -1.13162829335942
H           0.04925585569893   -2.05960743813646   -0.78624232553227
O           2.24481889993282    0.94578795379296    0.37773918935955
H           1.59596396092336    0.68729355918186   -0.31947641950846
H           3.10437362607270    0.68129232025822    0.04453046216655
O          -1.10981431608648   -0.62322376498566    1.47816698858220
H          -1.04416788953089   -1.39668628064984    0.79957842080523
H          -0.18590774213379   -0.52486111967540    1.93472864677361
H          -1.19747936223227    0.23088678410063    0.83647069496603
