    19
        -40.92135316
S          -1.55226575770667   -0.15787311759182   -0.06387122311584
O          -1.55028254596356    1.03036328041756    0.76093697048592
O          -1.31667991587555    0.15257620878330   -1.47439137353832
O          -0.64412525885520   -1.18917757323173    0.41258904084056
O          -2.99971084915908   -0.78083787726718    0.01950738746174
H          -3.56126434200810   -0.03667813040316   -0.17434580769644
O           0.93181442146124    1.85414662785456    0.59147783190915
H          -0.04666484127148    1.78255438396274    0.69197304484600
H           1.27066037441869    1.18712461525497    1.23526652747805
O           1.11127358041598   -0.22753704223441    2.21033569842134
H           0.67136110416282   -0.08567956747759    3.05029865013045
H           0.47048764512745   -0.69829743542556    1.64243012643918
O           1.49017076505866   -1.63023475500673   -1.08745480980948
H           1.28469501053457   -2.27859800076421   -1.76351364707642
H           0.72311102548962   -1.61514413699798   -0.47095250457918
O           1.07404052133133    0.82303889421942   -1.65417848846278
H           1.45306301661697   -0.10906160186339   -1.50017736286220
H           0.05545981738698    0.63057958005341   -1.72744296752337
H           1.13485622777671    1.34873565784107   -0.69848710367901
