    19
        -40.91373486
S           1.18537243295620   -0.64800424715259    0.97980915564909
O          -0.15273654263424   -0.65083327489088    1.50829486363921
O           1.49042237783971   -1.96055241995597    0.27471610731372
O           1.53532152032448    0.46691818045764    0.16280741048325
O           2.17093917588019   -0.68498483080272    2.20179265326947
H           1.88099983283338   -1.36957859150508    2.80266092136978
O          -2.01100766223311    1.77502828491152   -1.12392377938206
H          -1.48805301328980    2.03027716763305   -0.33218645592879
H          -2.90545545084226    2.08357400400624   -0.97175996039861
O          -1.41590672224658   -0.83815792807392   -0.97124534343329
H          -1.19835732987640   -0.87904472780048   -0.03035510670403
H          -1.70045271173015    0.08717314219175   -1.14439829136987
O          -0.50564931895143    2.05557732464111    1.09091878551173
H          -0.67068843819624    1.19379665105139    1.49679555387384
H           0.37090179952557    1.96451784831553    0.69551132040403
O           0.90086753101621   -1.27781715783565   -2.02723524822832
H           1.27845918751050   -0.39129248191371   -2.04079871524373
H           1.30746409310277   -1.79608469597684   -0.76233090793334
H          -0.07244075117175   -1.16051221731791   -1.80907297273910
