    19
        -40.91820721
S          -0.65005161638252   -0.07277801817338    0.79124515289874
O          -1.48770953873677   -0.62339279649086   -0.24246842792694
O           0.60179036920348   -0.93881625675574    0.93205030961776
O          -0.27518452684690    1.30228399685938    0.62961648393765
O          -1.38308305626605   -0.22299146866615    2.14785971184386
H          -1.88205998833879   -1.08008980612046    2.11344018136111
O          -0.22201997753220    1.07317359094320   -2.07600281765222
H          -0.76902173455891    0.28405031977422   -1.99492418362944
H          -0.30192646239641    1.50180734545939   -1.21093647413508
O           2.43435588510726    0.68590139636821   -1.94346881128710
H           1.47021789639098    0.77399851446201   -2.11213579677655
H           2.86827984012938    1.32950236750465   -2.50618606213073
O          -2.67646610317938   -2.34774133893090    1.39296399549691
H          -3.63434517764966   -2.28276742633428    1.36119861337405
H          -2.34052181467013   -2.00160901445641    0.54615519367799
O           2.42130638395294    0.76482592831286    0.70849807399853
H           1.78690814834156    1.48446362128659    0.82312296984827
H           1.44884408272357   -0.33499166330633    0.90449710300995
H           2.59068739068201    0.70517071827985   -0.26452520551182
