    19
        -40.92174078
S           0.32880421130458    0.44577007677758    0.70463385178977
O           1.31892304329112   -0.51239226016187    0.30910062202313
O          -0.79496783595173   -0.11282607387689    1.42635626968593
O           0.99879658742229    1.51893384572037    1.58982673889915
O          -0.16092510079059    1.23451169218536   -0.49582317879479
H          -0.43370380185613    0.59924189386132   -1.33568776275648
O           1.90696088376332   -1.00147386514920   -2.27123888820957
H           2.61192273450362   -0.41497372760136   -2.55059232459233
H           1.84003515923555   -0.91174805798724   -1.30162198309384
O          -1.06256818268130   -2.12664504651651   -0.36202904926886
H          -0.21154273203288   -2.56054549015982   -0.25862845194583
H          -1.14101878563931   -1.51489002145084    0.38853353324107
O          -0.67406364496773   -0.36298846016735   -2.30915232601256
H           0.24109859009784   -0.62866090425543   -2.55899905978177
H          -1.01279111678532   -1.10695450424812   -1.75727615120424
O          -1.24863558435653    2.14821156268030    2.72677571824688
H           0.25747632130952    1.98843584581699    2.05274645243450
H          -1.45616023927935    1.28458844788831    2.32433779459327
H          -1.30764049664337    2.03440503668280    3.67873821478080
