    19
        -40.92003355
S          -0.53824184389364    0.69606352105025    0.02305303099951
O           0.31852496972102    0.45378233725437    1.15621985696367
O          -0.26986162587491    2.08090752161326   -0.57080941821276
O          -0.40682478977508   -0.30639764231634   -1.00756364065662
O          -1.99642622094151    0.82323100978040    0.46893629015115
H          -2.32999267013716   -0.05251214305229    0.87607479222268
O          -2.66409236655512   -1.47539148835301    1.32929947286876
H          -3.26383608632024   -1.89746223156028    0.70928552436152
H          -1.78824539894569   -1.93367547264925    1.23408143581397
O          -0.22649007572550   -2.30224149517102    0.78999921785443
H          -0.19121814310317   -1.79267484454601   -0.03840430419004
H           0.33504153493404   -1.81687298550044    1.40285200969330
O           2.74273649640568    0.70782433085192    0.04398721065314
H           1.92649308160264    0.55776253013812    0.55891786545167
H           3.26085807787750    1.34737862053691    0.53688900559703
O           1.48635878601240    1.33827359733865   -2.22617084510922
H           1.03154522371493    0.51141948981164   -2.42720008734922
H           0.41984599885713    1.94845512642222   -1.31964606413254
H           2.15382504215259    1.11213021817853   -1.53980135303297
