    19
        -40.92044769
S          -0.44160773311226    1.12553472749380   -1.04302055096573
O          -1.06885679635872   -0.11555951435661   -1.49051111228226
O          -1.12119744686389    1.68233024255680    0.11047874662767
O           0.98707732392645    0.95290234785064   -0.84241452624352
O          -0.59894744021894    2.18228775964730   -2.21099219840581
H          -1.46965314472110    2.54225345209851   -2.07103686877656
O           1.63899237095928    0.63106673854969    1.63807726533625
H           2.59323754057020    0.70529910685752    1.69949047527541
H           1.38801922013905    0.91630221169659    0.72079353271010
O          -1.89906501410190   -0.59430191227042    1.05438028622317
H          -2.12208184526956   -0.91039550896292    0.16852469968720
H          -1.68655699578275    0.36150041277538    0.89738960485632
O           0.85230299396782   -1.77158240125035   -1.02595276535986
H           1.57633184517392   -1.16099530536630   -1.20659545794532
H           0.05454796878040   -1.26804469499840   -1.33838093102704
O           0.38201840075949   -1.56022602469154    1.43934285947871
H           0.62155402091977   -1.77701442311668    0.43951540263968
H           0.93190409720686   -0.72338509718435    1.66776384732095
H          -0.61801934597523   -1.21797209732799    1.39314767085168
