    19
        -40.92079119
S          -1.39267567682601    0.00549852678074   -0.51718446832812
O          -1.26412067785028   -0.48795493384473    0.85537801209799
O          -0.33173669655907    0.95103915796812   -0.83538839552204
O          -1.54307425225477   -1.05904837795495   -1.47536964521074
O          -2.72615837452292    0.85726497376850   -0.54925408427413
H          -3.40943785512713    0.19940288200842   -0.46630085804723
O           0.41536797566945    2.51229312598325    1.13573161852610
H           1.09906495625556    3.10093732568716    0.80965059508614
H           0.01124802118818    2.08491045679350    0.34400305393750
O           0.61632429703019   -2.51776197916828   -1.03526115260509
H          -0.24132485373335   -2.06354005357005   -1.18375624280536
H           0.77114256557324   -3.05650614036966   -1.81348325343000
O           1.93654744773681   -0.35138584878062   -0.31956247552107
H           1.65647671372602   -1.26606261055129   -0.55867806954025
H           1.26550571132850    0.21775687021935   -0.74798508399405
O           0.89782015120426    0.11664297246503    1.89741837449133
H           1.49140621729363   -0.14944624241476    1.05249857547843
H           0.79967353547212    1.12401986086311    1.82232570222598
H          -0.05204921562103   -0.21805996589975    1.58521779743179
