    19
        -40.92123226
S          -0.56388067092714    0.58833832398867    0.89501869608568
O          -1.68065325938551   -0.24736736338923    0.59562052582947
O           0.55558441227390   -0.08102530970377    1.52668894027190
O          -0.04566938940997    1.29286079670971   -0.35876525419262
O          -1.01778227001815    1.76477292993728    1.78404142817598
H          -0.18331119796931    2.26006960970548    1.97391403938320
O          -2.16626099501289   -1.34873602542494   -1.81266302501009
H          -2.23783235524902   -2.29294620170387   -1.65667716848809
H          -2.19195198780105   -0.92829984572630   -0.93297583751250
O           1.50050780570871    2.42413728575891    1.82738428378033
H           1.66833745803104    2.67016975731960    0.91306877669372
H           1.56436487676152    1.45620921127860    1.86977521361984
O           1.21349426514016   -2.04224626463125   -0.17259630524173
H           2.10130090887957   -2.34971150612376    0.02082062898859
H           0.96343670001872   -1.43789393673983    0.55313760178176
O           0.29463733532913   -0.43431612907814   -2.08890256341713
H          -0.63075167797423   -0.76513156321185   -2.21325709177763
H           0.11620117368676    0.59209449216919   -1.18007358418930
H           0.74022886791958   -1.12097826112310   -1.54355929477770
