    19
        -40.91892669
S           0.05410033820426    0.20440288824702    1.41864210321961
O          -0.03011185755487    1.63295111599713    1.63313136783244
O          -1.11521914648719   -0.38452471198511    0.81454077147427
O           1.27292905798764   -0.15402692389146    0.66912778586876
O           0.22239851367218   -0.46905810068136    2.83941294428502
H           0.81756801219468    0.10824981653871    3.30863585823999
O          -0.38393578324632    2.55806917947761   -0.76877798986932
H          -0.35106319012384    2.28130278729217    0.18268201971596
H           0.02353144012362    3.42591187545847   -0.81198091578149
O          -1.10327632512253   -1.18171492398663   -1.81727716169340
H          -0.67284644833089   -1.96867058831774   -1.41285791931004
H          -1.62479478778295   -0.81486843757685   -1.08576028423559
O           0.12443752189617   -2.65636597916485    0.04258396359435
H          -0.41530295870036   -2.04013410201337    0.56555622140345
H           1.02966526218699   -2.35984174813453    0.17484174146055
O           0.76201139733151    0.47843165119421   -1.67411213035968
H           1.10424898615014    0.18460298842890   -0.72344489744688
H          -0.01944529961883   -0.21775557930911   -1.87702749097546
H           0.30510525722793    1.37303879242804   -1.47791600741935
