    19
        -40.91898065
S           1.21653329026574   -1.03504817215028    0.33462362096357
O           1.40990650666251    0.37265564163569    0.02483951996775
O           1.32351903052228   -1.35167403491157    1.73452558832977
O          -0.04644362960873   -1.51367986927671   -0.25425593296689
O           2.36430126365582   -1.82029063106570   -0.42197135193402
H           2.50375286035716   -2.61451359037315    0.08696321655978
O          -1.85324320360835    1.60370604454022   -1.19391327981975
H          -1.13499440894523    1.19358795496784   -1.75533140653166
H          -1.54376487829404    2.48007057463842   -0.95584744123014
O          -0.00804501888091    0.91488610197331    2.19887559624192
H           0.39044720221457    0.11051917366757    2.57237171775820
H           0.60421750002013    1.12819603728528    1.47001032427369
O           0.17208438968704    0.39553646223587   -2.31165133381490
H           0.77869556418069    0.48490826104772   -1.54758118035657
H          -0.04514193005196   -0.54134725390868   -2.33771246465789
O          -1.80997560234846   -0.06035893561580    0.70471653473010
H          -1.94615986463340    0.64120698158353   -0.05616591924681
H          -1.15892562691413   -0.78047646868015    0.28598752555036
H          -1.21676344426689    0.39211572240168    1.42151667618376
