    19
        -40.92453818
S          -1.14523490577699   -0.47626306551293   -0.88541387509086
O           0.06165699052254   -0.48756437373853   -1.70416038727908
O          -1.02646183313012   -1.41464023318298    0.22514586070074
O          -1.50849444064648    0.85570899972807   -0.44950291164122
O          -2.32898653434638   -0.98652496217679   -1.79827388962233
H          -2.05813192287685   -1.85153261529546   -2.09194506360791
O           1.56180181866700    0.79620147160796    1.28452034773062
H           0.61720319728025    0.79591952729403    1.73526769491597
H           1.43419574473107    1.32650539453519    0.39097669225436
O          -0.83498876139764    0.64471216381469    2.05011692030173
H          -1.23928956341992    0.86751531074840    1.17586579308570
H          -1.02611606571872   -0.29509964145811    2.15348343338926
O           1.00451025527767    1.81617703999013   -0.95213788411762
H           0.16617153071353    2.28072263577645   -0.84626199659619
H           0.74730993933091    0.97359845391196   -1.40335238173642
O           1.55887979270474   -1.54245807206899    0.34781845513612
H           1.70184760520388   -0.19307184282920    0.97633259059455
H           0.57597910856205   -1.66444195104897    0.38635495471342
H           1.73814805461401   -1.44546422997993   -0.59483434291573
