    19
        -40.91597568
S          -0.85123767176918   -0.33189397112418    1.59355529845313
O          -1.14646294132258    0.86411144419732    0.78078483234266
O          -1.59708895654452   -1.47753606706764    1.10305085867017
O           0.56044632505868   -0.55810401990303    1.73580865457649
O          -1.42098237171056   -0.00301230600414    3.03043314377266
H          -2.36048134527585    0.02734627249554    2.87857050430390
O           2.41813852944337    0.88893095641838    0.60435659988036
H           3.18747102187906    0.32396675368135    0.69877398169856
H           1.69133680482730    0.41785526332786    1.07755213851144
O          -0.76023032399537   -2.02418747056459   -1.27316856864553
H          -1.03167604623713   -1.93717995073919   -0.31927553194802
H          -1.42707293971793   -2.57355695533214   -1.69076652443801
O           1.57525057482031    1.37543324427898   -1.81268259087167
H           1.58126613493994    2.33192061392143   -1.88642841911615
H           1.94433540016487    1.16952959721898   -0.90767025677702
O          -0.78884421039142    0.48960371230368   -1.62050867307553
H          -0.99870070182414    0.71297562761258   -0.58718345159220
H           0.17495261239444    0.83905056602478   -1.77429408298533
H          -0.75041990476865   -0.53525329089193   -1.63090790282825
