    19
        -40.91790598
S          -0.02419221709488    0.91899046220007    0.45858221799321
O          -1.37926689240336    0.86460849521843    0.92664609422735
O           0.74941605959725   -0.26892644496564    0.71451631710623
O           0.01047512353257    1.27190553022872   -1.01688510473827
O           0.70225371159719    2.13868548268059    1.10677146297248
H           0.67194941888993    1.95824466490459    2.06955415292345
O          -2.09771372546025   -0.81857243946429   -1.09932984521721
H          -2.24268942966190   -0.21576011540978   -1.83170088980649
H          -2.03849624555333   -0.26737800939463   -0.30365503677688
O           0.13348639424689    0.75551159792383    3.26557338284978
H          -0.79653517677293    0.71161615043809    3.01508412994025
H           0.54645785990188   -0.03238883260736    2.89525291891353
O           0.24564896363160   -2.21497025018057   -1.14148113681319
H          -0.68981329379389   -1.96395788590901   -1.25427871479394
H           0.48810333702033   -1.85173015114760   -0.27631962358263
O           1.55441645798524   -0.26835986128669   -2.22702425113243
H           1.08455269708311   -1.12215559203966   -1.96968064316860
H           0.68927010762293    0.68087054893588   -1.57375313467245
H           2.39267684964464   -0.27623337014582   -1.75787228621114
