    19
        -40.92134954
S          -0.12226216791662    1.15208139948010   -0.33370550575508
O          -0.69268987297079    0.36852011232276   -1.42762501909847
O          -0.65137157152740    0.62933901134196    0.95101562898375
O           1.31717569308648    1.16909376116361   -0.33957709239573
O          -0.63255689985017    2.61387090398085   -0.45685090260284
H          -1.60819766798674    2.51283716179600   -0.46410880630735
O           2.79229762457454   -0.39097051356225    1.13141763182204
H           2.35819854899984    0.33798308134437    0.62231034982751
H           3.40207428291932   -0.81210747537650    0.52101499654300
O          -2.96753991192264    1.40005551331759   -0.41737872885768
H          -2.78766123079079    1.04162772817607    0.45867729926632
H          -2.45643782915263    0.84955798533064   -1.03193512226502
O           0.20561732500274   -2.04253574960004   -1.07036539720177
H          -0.46227655381435   -2.64453914029442   -1.40550071863762
H          -0.08640590049001   -1.13001884256685   -1.33134759671881
O           0.52446430905660   -1.48059525555311    1.39351637824543
H          -0.04047215832796   -0.55474515053426    1.31846746079155
H           0.40638615047848   -1.87497932015511    0.45841315273734
H           1.50165784063844   -1.14447521061183    1.42356199162103
