    19
        -40.90929555
S           0.48700461187276    1.19331546989865   -1.46568534948300
O           0.92739658021361    1.77023149093467   -0.24149268650043
O           1.37684630549733    0.34991518727151   -2.20087322284498
O          -0.83717674165424    0.44857299735626   -1.25423225349958
O           0.07881648571232    2.38379840216528   -2.42495252627812
H           0.09799536638563    2.05481971592086   -3.32146654729169
O          -0.93128024848716   -0.42569450704698    2.61631407966573
H          -0.52636333814934   -0.07754896427317    3.41271212967021
H          -0.24256976341082   -0.98137554980916    2.18435935472887
O           0.58124099750424   -2.01821684597972   -1.16416992203614
H          -0.34785075582320   -1.80415601364294   -1.28718294428599
H           1.06746129741387   -1.30151355050753   -1.60478795735360
O           0.99089423387532   -1.89195835152291    1.48486900475774
H           0.90630157120919   -1.93099036904307    0.50657163145842
H           1.12072283054335   -2.79701335004814    1.77368184423816
O          -1.47841885849020    1.48056972233183    0.89077537208917
H          -1.25694415517656    0.85016536321174   -0.35883534715761
H          -1.38955507094919    0.75508403587713    1.56872285308202
H          -0.62452132807202    1.94199512691837    0.88567249704141
