    19
        -40.91907719
S          -0.31115946835805    1.50933031846595   -0.63667431109482
O          -1.23649775380507    1.43360216256583   -1.74291022904551
O          -0.90545368944545    0.97835323471619    0.60842539874218
O           0.97397575838110    0.90020954123586   -0.89174259316710
O          -0.04920739048513    3.04409191970451   -0.35040758306275
H          -0.87431223024741    3.47942744577736   -0.54823331290409
O           0.93386899462977   -2.14078560578584    1.44070628699301
H           0.85546766187070   -2.51065343340672    2.32193665867683
H           1.31293672876476   -1.21984511892594    1.54582431475357
O          -0.49753618819121   -1.04649810155379   -2.17018633760777
H          -0.93676934435031   -0.17124531732833   -2.25974323994018
H           0.43850136154840   -0.82169122188632   -2.08937535708132
O           1.56529821846156    0.38134629459667    1.62682074102342
H           1.66589764918425    0.60052256093417    0.67929252751178
H           0.70932281703991    0.77151308310113    1.84653911088692
O          -1.17556817048324   -1.45835636995094    0.22807098619282
H          -1.17058962921752   -0.42844447507126    0.45993987812672
H          -0.95385380571600   -1.45683811399077   -0.78817423757014
H          -0.34432150967932   -1.84403880305014    0.71989129855628
