    19
        -40.91907718
S          -0.98019004828082   -1.24540690413256   -0.51658028368303
O          -0.69879563668025   -0.01528159598776   -1.28701447837869
O           0.11003607837343   -1.54876282483308    0.38162500879734
O          -2.27686292849279   -1.19099595599641    0.11692641165616
O          -1.03311696915475   -2.40593206341388   -1.59168121138164
H          -1.92629455239608   -2.39649220797233   -1.92589036056882
O          -0.45913285157786    1.78555269277403    0.40340919927756
H          -0.61497102399847    1.11107494247324   -0.39277930494704
H           0.57495070753927    1.86316506408565    0.48510541443526
O           2.06674978907666    1.74514347286177    0.45777435819472
H           2.18310571436560    0.90892441849406   -0.08094310063287
H           2.54500078248813    2.43873989312885   -0.00015802694439
O           1.99956631292632   -0.38293653790428   -1.04574217119931
H           1.29241391137783   -0.14830043922424   -1.66093344884381
H           1.55703170316011   -1.00675168655993   -0.43733164706696
O          -1.21948282120823    0.10990572249219    2.13333615855901
H          -0.78883741825609    1.23791480754014    1.22434053426459
H          -1.86067125547305   -0.36108486568865    1.55524071193813
H          -0.47049950369543   -0.49847594212972    2.18129625654630
