    19
        -40.91283196
S          -0.15521771893784   -1.00967544088451    1.11368485116399
O          -1.08925553703587   -0.97207238043230    0.01309053284785
O           0.97166474164567   -1.98732001895735    0.78631533323071
O           0.32869841010908    0.24087158666802    1.57346461009305
O          -0.87221284994117   -1.74539288827631    2.29711819822226
H          -1.30191355989020   -2.51596666911479    1.93165823253809
O           0.01585317050578    2.47814890242252   -0.07175802742705
H          -0.95144927500192    2.37004252305302   -0.08131317541826
H           0.30809052681605    1.99942710105036    0.71497275221963
O           0.60137638233389    0.44453546751412   -1.65248148704315
H           0.48122416583794    1.32362235868073   -1.20847270543409
H          -0.10776108774303   -0.10935609853544   -1.29793825813594
O          -2.50812209199091    1.37038511665877   -0.21731135393948
H          -2.91792782742682    1.36138067503961   -1.08472927259475
H          -2.10317050484675    0.49675227180797   -0.09256402086419
O           2.61776700469243   -0.75308166918956   -0.61242521763434
H           1.73214790391046   -1.49533019055357    0.25540788098834
H           3.01653862920720   -1.31653391543045   -1.28052480227014
H           1.93366951783340   -0.18043673157736   -1.08619407040833
