    19
        -40.91984719
S          -0.47776107990636   -0.61357393750599   -0.76205199588133
O           0.01556488663126   -1.37760222696733    0.40157916218595
O          -1.26673078834305    0.53243214302627   -0.29683779130999
O           0.60040472778757   -0.22335824925934   -1.63390539352219
O          -1.42793930591610   -1.55303951105296   -1.55090250897025
H          -2.24010344548427   -1.59876500603137   -1.00087389922893
O           3.04661771194694    0.10294292653854   -0.79391680177858
H           2.19762616077534   -0.10348810273195   -1.25690166869913
H           3.28618690400746    0.99159061245063   -1.06638824736312
O          -3.42596071856253   -0.92543197722647    0.04247251308133
H          -4.18301414610773   -0.54528098580866   -0.40934264401725
H          -2.75779994226088   -0.21506310726599    0.11811618064099
O           0.35859277867880    1.94487395986363    1.17526621414827
H          -0.28001947368872    1.51022124856257    0.55478735450729
H          -0.16460210701933    2.27466686719287    1.90902073214975
O           1.84052071123434   -0.12398623860946    1.43131704563664
H           1.35506426653592    0.76851599493235    1.46631662740635
H           1.04127549602236   -0.78932996569859    1.03973639074362
H           2.48207738367278   -0.05632443440653    0.63250872027174
