    19
        -40.91198914
S          -1.61045983392635    0.59552401455915   -0.26711477024565
O          -1.99328186636628    0.13464441713545   -1.66919782166843
O          -1.72784840205093   -0.46640399051453    0.68270137952885
O          -0.36209419921081    1.29432679849666   -0.30150854466730
O          -2.73298015010991    1.64861790023487    0.05317940299731
H          -3.51874103310143    1.16425368093989    0.30026523876527
O           0.39316540575683   -1.89812379216637   -0.32086940636541
H           1.16473648987872   -1.66137697165362    0.24059389118140
H          -0.38980398102353   -1.59817872323008    0.16263068936909
O           1.31136653521773    1.42547454264837    1.80807576169485
H           1.88598464931805    2.17132829767700    1.62414834319157
H           0.65038940617007    1.40807650729560    1.09186781786516
O           2.30109831506230   -1.05352397903397    1.38338406230411
H           1.99320942980382   -0.14483592996341    1.58495051412770
H           2.25416236808939   -1.54039401240249    2.20785008343516
O           0.27364081439723   -0.48032671608421   -2.47389787274623
H           0.77529119914141    0.30001106875938   -2.21737836926917
H           0.42707248087093   -1.15434774133090   -1.74421965152094
H          -1.09490763808044   -0.14474537169152   -2.14546073801689
