    19
        -40.92071446
S           0.56020908373120    0.24446866186478   -1.35051086055155
O          -0.31653397477371    0.85809946693081   -2.32133625408377
O           0.76472492466488    1.11457999619813   -0.17535677873214
O           0.14894181895335   -1.07714032015543   -0.93668863889816
O           1.97805886747948    0.11113182538072   -2.03487121425633
H           2.01433569457845    0.85342343875337   -2.63144803717091
O          -0.26273956378312   -1.51765932810180    1.62107989478379
H          -0.08359742344221   -1.64529165295503    0.66096351284609
H           0.60020989331351   -1.21909792800168    1.97825233899695
O          -2.46671216876769    0.06187505245653   -1.05872819082526
H          -2.39148345306742   -0.88960839419800   -1.17670803162003
H          -1.78694606417289    0.44861811506988   -1.66002492880454
O           1.97882797464804   -0.10137042234128    1.88463104601999
H           2.32767930451870    0.56086540374465    2.48302089225938
H           1.69009258846840    0.37308911330850    1.07979739902298
O          -1.33513855155730    0.65979109662386    1.13563935519835
H          -0.97294133764515   -0.31626966015893    1.48626679661792
H          -0.49230292825178    1.02497933620581    0.67770987784902
H          -1.95468468486409    0.45551619941435    0.33831182143611
