    19
        -40.90822104
S          -0.52294064603660   -0.16627062997735    0.16454537987733
O          -0.77474485957698   -0.45776754145716   -1.33217238976811
O           0.68007469323011    0.62845042596939    0.27069705992405
O          -1.68892131022782    0.37092164053904    0.77178223696175
O          -0.22531130905795   -1.57938579737499    0.72041451377613
H           0.66248110505206   -1.82575331851838    0.35547085186123
O           2.15315625248495   -2.33560888152195    2.54839373061141
H           1.20044602025147   -2.23661562915393    2.49205622896140
H           2.50574988966161   -2.15120753624107    1.67329686265200
O           2.16815870334531   -1.48736356153207   -0.31059900822702
H           1.98077668972117   -0.54529712984901   -0.13912259921944
H           2.27421579528481   -1.58665239246868   -1.25982490668711
O          -0.67850514647679    2.90714506152887   -0.32875801879205
H          -1.11184704259005    3.11019059338675    0.50397766230474
H          -0.00757499948587    2.23759311224658   -0.11877834184390
O          -2.36419060675491    1.45041699015615   -1.79649719445725
H          -1.78599453498934    2.15026504168892   -1.41029886348372
H          -1.43260903374712    0.24816953962000   -1.67642479428989
H          -3.03241965991288    1.26877002276160   -1.12815838010062
