    19
        -40.90733258
S          -1.05203443920338    1.46790409360881    0.52914426618742
O          -2.02294308038227    0.62518042413244   -0.30268506621092
O          -1.05085656941040    1.01718959456382    1.88278530039413
O           0.19682927136372    1.59165749564591   -0.15040927039195
O          -1.73312592335445    2.89410190565610    0.51364398422344
H          -2.37338331420808    2.90270439987722    1.22224196622470
O           1.12611246564804   -0.79745414347410   -1.03769841750767
H           0.56982112843361   -1.22892645901082   -0.34828600300837
H           1.19298995101927    0.12080801306930   -0.73288025054837
O          -0.13629385900632   -1.47816568215683    1.20471484971569
H          -0.51502899150078   -0.69121006410757    1.62032001528646
H           0.72677765860856   -1.62598774461868    1.62419354418493
O           2.64540306334816   -1.83401091402805    1.19078973036412
H           2.97168010815063   -2.73038109792267    1.09550432971237
H           2.49326409978707   -1.49837932002434    0.29578866338271
O          -0.84786767344444    0.17509770464127   -2.49298584261001
H          -1.62627610398773    0.41892876906183   -1.23153789019179
H          -0.47649599854465    1.02161742357065   -2.75549535080133
H          -0.08857180331778   -0.35067438848511   -2.12714854842377
