    19
        -40.91642190
S          -0.53042153968882    0.90751861741786    1.68531961615625
O          -1.61395262888793    0.85007915970214    0.74838496616669
O          -0.04367238090592   -0.48727818112321    2.03444079712305
O           0.55867189224691    1.76470301497425    1.32218947472439
O          -1.10169201445219    1.40572805205497    3.05858246894745
H          -1.92139812898679    0.93219674820253    3.18033531674856
O          -0.57296045074753   -2.25847059118841   -1.49807341302343
H          -0.88748723474022   -1.34326910884957   -1.70361816807844
H          -0.35685868397843   -2.66779295127806   -2.33718473991577
O          -1.04198870318414    0.32386978213632   -1.86356813291717
H          -1.44124953325920    0.56644308040140   -1.01094692111890
H          -0.15118491295039    0.69834625829602   -1.84428428204631
O           1.55940603542124    1.06195572278875   -1.00531483911416
H           1.21964763830305    1.45554703305759   -0.17133823221673
H           2.37238342398057    1.52607005707821   -1.21440443772879
O           1.27331345947627   -1.38200716060480    0.14651301233631
H           0.60403921155120   -1.85347484675663   -0.41925871524205
H           1.52036503554397   -0.57671265352107   -0.35219575615105
H           0.55503949527475   -0.92345205280833    1.24442198531035
