    19
        -40.92079108
S           1.02800979461796    0.49573734897913    0.95136092073834
O           0.38941590396665    0.84936715824073    2.19280232819027
O           0.80541962768036   -0.88198594257624    0.53504574563506
O           0.71034934174832    1.43017983117775   -0.13013656395232
O           2.59013660975012    0.60895857945219    1.17950637052420
H           2.69263702645812    1.46631714377890    1.58053648314400
O          -2.16262900695495    0.90937134668774    1.50782994105046
H          -2.68475903812802    0.82928572117378    2.30828507873287
H          -1.22772360574323    0.98439339128860    1.79780457596395
O           1.38087571547820   -1.41089030652287   -1.96873490376189
H           1.35763259393073   -1.28021769290643   -0.99134645103094
H           1.21269051878052   -2.34246556847974   -2.12421807419229
O          -1.72413082285242   -0.95496642524616   -0.30349595471784
H          -0.87712935746183   -1.19337370163961    0.12492513483654
H          -2.11671299060959   -0.28756164238585    0.30680987331335
O          -0.47352423118816    0.35240452231307   -2.01795532251792
H          -1.15726495593824   -0.19188792106090   -1.40671288059899
H           0.01207147380914    0.94414405284525   -1.29349007961210
H           0.24463539277254   -0.32680989526309   -2.24881622163121
