    19
        -40.91965229
S          -0.05893145710414   -1.29764331872529    0.82554693069617
O           1.20171360508164   -0.55340689564981    0.67809242615400
O          -1.18810613903376   -0.41043607037602    0.53093722330236
O          -0.09352975429019   -2.53138979500074    0.10549219140574
O          -0.14730442654830   -1.63280721942860    2.36853704193137
H           0.25294729494712   -0.88867234145812    2.81012496615903
O          -0.95228786316195    1.98952623368521    1.48350489933628
H          -1.75506106933892    2.49682656346658    1.34938509324282
H          -1.16522101823205    1.05347977651591    1.23638823759627
O           0.91827033611337   -1.47546809739478   -2.10897943967041
H           1.83173819119831   -1.33736303152254   -1.84888609053091
H           0.52666134416352   -2.02907494462046   -1.40431331448202
O          -0.66588595569941    0.61012045185175   -1.86030434112879
H          -1.15125533028317    0.19113122952272   -1.11824334054131
H          -0.11140074888257   -0.12398618305494   -2.22194856229022
O           0.89036924766989    1.71264107146973   -0.28201596219688
H           0.25184416542528    2.07034213141273    0.41556686755198
H           1.16865920336289    0.78793900395374    0.13139273855826
H           0.24678037463436    1.36824144526967   -1.09027755509762
