    19
        -40.92052666
S           0.83690622049653    0.08013829384875    0.03963580039927
O           0.15103483501351   -0.45589015101356   -1.10963737800709
O          -0.04393296620050    0.46541677922771    1.11406152569336
O           1.86904880906835   -0.91893758482366    0.57018804078961
O           1.70543555657402    1.26229492885974   -0.40000824027267
H           1.20463315078605    1.72839333203051   -1.16690718386219
O           0.12307520208317    2.14668825718308   -2.15725045678231
H          -0.57894949873571    2.41231921605956   -1.52013512605560
H          -0.13106537940185    1.26948030268392   -2.46716970116698
O          -1.47717546218676    2.42427109752174   -0.04525035189313
H          -1.08909218803690    1.68388976790561    0.45828027267033
H          -1.45933823272408    3.18692955642229    0.53665274295904
O          -0.98776889234675   -2.66089563190321   -0.07181538269805
H          -0.70088448571201   -1.85604310419653   -0.54322821124214
H          -0.77427290079038   -3.40095418889287   -0.64381729070380
O           0.32524897662385   -2.10338776265945    2.17904521935174
H          -0.11896647366477   -1.29300971601929    2.45497505676319
H          -0.25020325953942   -2.49233700944086    1.48142837479622
H           1.39626699871822   -1.47836637274941    1.29095228925881
