    19
        -40.90929604
S           0.28218046394432   -1.60690617367371   -1.06913075777644
O           0.82395065268515   -2.48036679106737   -0.07555985854555
O          -1.11033639485254   -1.31359381329866   -1.05321555651012
O           1.09692453251781   -0.30722194685249   -1.08102808314028
O           0.61073798056521   -2.24795975414993   -2.47808033194504
H           1.42446526504441   -2.74043297895433   -2.39084414400681
O          -0.63054432679730    0.74777559588750    2.41385956773616
H          -0.46057092342764    1.09188431885515    3.29250420627378
H           0.15326442581845    0.20225654802400    2.18187955623884
O          -1.31952381108564    2.43484228956259    0.46300659413996
H          -1.03693839166789    1.82259969819225    1.18050831329292
H          -2.26828667646219    2.53364484022299    0.56097989806908
O           1.58374309855566   -0.59416750230924    1.70844279401517
H           1.99662166976971   -0.05883409772431    1.02497474538812
H           1.33414766153188   -1.42248421033873    1.26592059430122
O          -0.69997825242677    1.22575464592126   -1.78764049696105
H          -1.31453318773055    0.47615332463511   -1.74012352422466
H          -0.89614131515598    1.78670016200275   -0.98726757027856
H           0.43081753915856    0.45035584505211   -1.42918595607496
