    19
        -40.91793141
S           0.59108329820770   -1.62768472594536    0.30181021288260
O           0.40992657199877   -2.05078587530749    1.67139251967881
O          -0.69437137107409   -1.46744326719650   -0.39726665063104
O           1.41273986066100   -0.44330801863828    0.16114674130438
O           1.34741754611223   -2.79024659379341   -0.45749455965788
H           0.87473035232651   -3.58123798967283   -0.21284032742997
O          -1.79341341419578    0.50612034064557    0.57597059403792
H          -1.42187017517507   -0.38808150516560    0.11529103269900
H          -1.56300336210249    1.26764383210273   -0.08610725399043
O           1.07213893964762    1.04609753491458   -1.95739326770851
H           1.21213685419089    0.40421361319133   -1.22100115997525
H           1.89491451175958    1.53197373868536   -2.03965535369411
O          -1.10652086713575    2.24179949846726   -1.14497596701610
H          -0.25695659344644    1.84569188439461   -1.48281388982874
H          -1.71031218327914    2.25208047172963   -1.89041324239155
O           0.00116035612551    0.44058511263336    2.37131326295632
H           0.10908037932842   -0.53746748637407    2.38526842725031
H           0.79306336833335    0.74841381611693    1.91491437875699
H          -1.17194408225189    0.60163560915398    1.39285452273472
