    19
        -40.91642173
S           0.22011252251371   -1.32210531076532    1.46684803382809
O          -1.17635017817861   -1.05331287770504    1.64076352339052
O           0.59342567808217   -1.86694073279879    0.19438390372075
O           1.06351587566545   -0.10504024061034    1.80147252641328
O           0.66030046029297   -2.33812757804666    2.57785621254355
H           1.53377624930041   -2.62916913240682    2.32629674806004
O           1.48563737809908    1.41062676805891   -1.86698574473086
H           0.93621724442387    0.61137393715719   -2.06203519307694
H           1.37403229095994    2.00633215968150   -2.60932368525300
O          -0.24152731976706   -0.58973204283457   -2.06375607013916
H          -1.03924860174055   -0.21167944987561   -1.67003718962866
H           0.10645565176450   -1.20582318457739   -1.39706571143849
O          -2.04185384461972    0.59302212518490   -0.21808581091313
H          -2.93522130016580    0.90089360292534   -0.05355521184429
H          -1.84629990409190   -0.07875694768175    0.47200721000208
O           0.29844989775733    1.80762273537740    0.43871005448514
H           0.85123994994796    1.76080563491516   -0.38739341510628
H          -0.60349740220954    1.53989321454822    0.16864483077332
H           0.76083535198546    0.77011729946304    1.24125499888635
