    19
        -40.92120162
S          -0.29516906549953    0.60672203053345    0.68941601232342
O          -0.60073549174114   -0.90854233306648    0.53537939594815
O           0.62338700003650    0.96998879419026   -0.37157807675459
O          -1.51038329989595    1.34697891394667    0.72181613357762
O           0.41740507566927    0.69471434329514    2.03400897426885
H           1.28133071603816    0.14379039587784    2.03495657805939
O           2.07168664281940   -1.26206200580748   -0.61201464621085
H           1.62291955928172   -0.40178776513204   -0.72346271725694
H           1.37818865212419   -1.92606888521292   -0.64257703759177
O          -1.35276641307315    1.10018152950940   -2.21232435575655
H          -1.74887000948049    1.96471157799011   -2.07986804691500
H          -0.52759509512888    1.10946563264565   -1.69750238778543
O           2.57897995945844   -0.63154697770702    1.88516509639950
H           3.32412871057043   -0.02588535274584    1.88460325341973
H           2.51016000294675   -0.99593781475525    0.96350349648274
O          -2.75281786974064   -0.66269845577481   -0.77375631971334
H          -3.18210206669842   -0.03413891745456   -0.18344034925001
H          -2.35036948731302   -0.11386950159775   -1.48704887804022
H          -1.48737753038198   -0.97401516873640    0.03472385478500
