    19
        -40.92113585
S           0.27925528141954   -0.38474589338126   -1.09653642069127
O          -0.93808875677338   -0.70329305910452   -0.37476946465381
O           1.16672672586951    0.47764794940408   -0.15321118893834
O           1.01349929201691   -1.50608084552527   -1.56822922451256
O          -0.04312962605129    0.58859027038363   -2.22629094926213
H          -0.26044213487750    1.49574662809505   -1.79956040612085
O          -0.00268151182840   -2.11596690314361    1.72890141963722
H          -0.41715818769093   -1.73340130015273    2.50509464982599
H          -0.46046685037169   -1.74038935449643    0.95532717006264
O          -2.25060729768157    1.38981959357575    0.58402984336282
H          -1.82993956744028    0.54925254801987    0.30481262325388
H          -3.16251492236540    1.34644751697167    0.28979036739279
O          -0.49787310911091    2.69970286067634   -0.90195863412620
H           0.30309760391569    2.73300554132121   -0.37058525692956
H          -1.21453711152648    2.38269668813544   -0.29863608156245
O           2.42740785073877   -1.48130906053113    0.81302859831922
H           1.78698396350613   -0.18861001181471    0.31553418776575
H           1.67597709717724   -1.85578251608598    1.32293152057739
H           2.42449130108082   -1.95333065233138   -0.02967277344562
