    19
        -40.92052664
S           0.70961514164604   -0.41724245256745    0.17586279793467
O           0.42445095405659    0.90199951735953    0.68278912884262
O          -0.33364478216193   -0.95581265902030   -0.66087748241039
O           2.04534583590557   -0.38983808494318   -0.57248415251233
O           0.98551811375012   -1.39170419185752    1.32454954934625
H           0.08735836582049   -1.83108804966288    1.56206369306326
O          -1.75570896749340    0.43742533080113    2.18808024863759
H          -1.02869075827720    0.74888553383777    1.61643701103632
H          -1.60392490160261    0.82216223655013    3.05382830952929
O          -0.33420046883718    0.79122546442454   -2.70626504573724
H          -0.48880740683352    0.14342317373562   -1.99299901920065
H          -0.29090967332536    0.29011519643551   -3.52326548026363
O          -1.40240720074647   -2.14656101621318    1.64379893329557
H          -1.73045977385409   -1.27430042140303    1.96130035071244
H          -1.59463140641403   -2.16389493017656    0.69893266199977
O           1.78267972865946    1.92347262731842   -1.54951157871753
H           1.02787874904971    1.68827598007333   -2.13598425172435
H           1.38265625016417    2.28858476809365   -0.75146924915454
H           2.11788219049376    0.53487197721094   -1.01478642468846
