    19
        -40.91821035
S           0.05830290437530   -1.68511272380950    1.04876789981299
O          -0.62764190890908   -1.92272052691502   -0.23300284188036
O           1.37981195254645   -1.11963613226713    0.82098213651914
O          -0.73953954106869   -0.92218210609571    1.97339791257904
O           0.27711911558002   -3.11719149455988    1.67282380289453
H           0.77059848544017   -3.56513853411373    0.99251857480572
O           0.47079154383032    1.23772628559713   -2.30233926270203
H           0.96037175002253    1.30213177968315   -1.45225898695127
H           0.34618356473147    2.13250474158108   -2.62432189961800
O          -1.24270084138739    1.39776100873110    0.90256170759669
H          -1.18643555482529    0.60323273923973    1.48641033630850
H          -0.31900334749500    1.68025113113547    0.78748645163420
O           1.41275110352371    1.36684970136230    0.20009915889732
H           2.24958547060080    1.71965280550859    0.50712109987335
H           1.42851622867541    0.39617804759937    0.44564500967704
O          -1.58595124263162    0.11640565410032   -1.22349008345336
H          -0.83406019932739    0.48312281355097   -1.79513850154459
H          -1.23276559932358   -0.82577001622555   -0.84863517270903
H          -1.58593390463758    0.72193482549288   -0.35862733218276
