    19
        -40.91167198
S          -0.47065593368889    1.47699031950158   -0.22066374722646
O          -1.04007376120676    0.43631725304308    0.74712375695512
O           0.24401936277289    2.46889761367742    0.51624217324445
O           0.21144960207836    0.84824819302007   -1.30868877679973
O          -1.76967210087654    2.12026391261540   -0.82348015843622
H          -2.12774930672457    2.73122211904641   -0.18226731065319
O          -0.05725738068798   -2.40680247152496    0.18295623162089
H          -0.37908125084240   -2.23680063739421   -0.72461993468350
H          -0.72590974736687   -2.03703773855626    0.76390977626399
O          -0.82699457469928   -1.46515398108114   -2.24720332282190
H          -0.33894489250026   -1.71267842453452   -3.03499807479996
H          -0.52038037362745   -0.57432751447075   -2.00184311454865
O           1.92388435293688   -0.61436030459671    0.36957998088629
H           1.36099637836540   -1.42191912275524    0.32382873189081
H           1.63984819763000   -0.06754000400816   -0.37298082692645
O           0.80023833102482    0.53512284139401    2.39721794680324
H           1.42050057700224    0.03911639813836    1.78647296612418
H           1.00463875898096    1.47055172915704    2.27378862202314
H          -0.34885624759468    0.40988982021359    1.55562508128408
