    19
        -40.91892670
S           0.81109382077591   -1.02648805898177   -0.58728312266291
O           0.90371780411168   -2.09059325637282    0.38905242183810
O          -0.51948012815423   -0.77874831665158   -1.08454013944428
O           1.42722623433383    0.21637134607573   -0.08564242079686
O           1.68993737557729   -1.45842588901266   -1.82906999598876
H           2.46175134981759   -1.86434422180934   -1.44525350811094
O           0.03963442633769    1.67522544846682   -2.06460274531618
H          -0.11650805812376    0.71659603963451   -2.03211567741678
H           0.88443055044441    1.79954986851768   -1.62218459881874
O          -0.65074080769998   -1.25588560928187    2.29620270277299
H          -0.30271447715498   -1.59014980166213    3.12581107418655
H          -0.12256226734116   -1.68878824076487    1.57742020211336
O          -1.94154972910904    1.43561398658852   -0.28792507849897
H          -1.38754532675967    1.84810985906453   -0.98884305901060
H          -1.97906759571519    0.50363074342981   -0.55576509628228
O          -0.23557574530690    1.12619218172122    1.51440291061238
H          -1.02701727614818    1.34951428422437    0.83551209343389
H          -0.48691404840742    0.24307855365311    1.96649943025961
H           0.55188388907351    0.83954108479680    0.87832460502217
