    19
        -40.90951426
S          -0.56548804694928   -0.68279226900129    1.52834682242816
O          -0.88137056987217   -1.17998993703005    0.22331595251276
O           0.44528426299068   -1.37531187582881    2.26051625629119
O          -0.24867944456392    0.80963674917021    1.48975999302539
O          -1.90815494431758   -0.71601171585192    2.34524833232414
H          -1.70017123318455   -0.55513206927788    3.26378649302142
O           1.57676343848784   -0.56667193700198   -0.96749020434236
H           0.76999979508023   -1.01771616593535   -0.68591218109454
H           1.27724934440837    0.15098201611162   -1.56562353779955
O           0.35536262569360    1.31515093768773   -2.46570977035210
H          -0.55826747941962    1.12115498352341   -2.17782207735863
H           0.34105232214991    1.35938172905301   -3.42284871121889
O          -2.06755023064673    0.35884000936508   -1.65558649348528
H          -2.58645078134472   -0.24902870651728   -2.18590640733935
H          -1.71148073822500   -0.16588789656499   -0.91634074846089
O           2.20874826391223    0.55464894827956    1.28482130771063
H           2.17256783096713    0.17633994703822    0.35836426991639
H           0.80359967321642    0.87111617530946    1.41821317885939
H           2.27698591161717   -0.20870891253296    1.87086752534344
