    19
        -40.91373474
S          -0.10841130949829   -1.02331174927430    1.31368279561042
O          -0.63391024948364   -1.52141336449836    0.07055954490202
O           1.33952603423198   -1.45063883886363    1.49785553084948
O          -0.26444706489598    0.37484358789127    1.54611616062777
O          -0.83656163333319   -1.79415643740610    2.47191360568460
H          -0.81433485729176   -2.72879438490247    2.27253092100003
O          -0.67096677714373    1.84876247230642   -2.14639819320467
H          -1.34897963141593    1.53947710092751   -1.50601804637535
H          -1.09688736962239    1.87401248926829   -3.00450488515740
O          -2.26113413466537    0.67568177535310   -0.31739829605400
H          -1.81532995598949    0.96858544316194    0.48788136538760
H          -1.96967985487596   -0.23950385995072   -0.42739995528672
O           1.11022042740302   -0.07044832457535   -1.55187585759412
H           0.55639444563661    0.68415053722073   -1.85342006965422
H           0.49637246055618   -0.72669452298803   -1.19580518204960
O           2.42996580186209    0.56781413387693    0.57592539574432
H           1.86632029571178    1.25094892345849    0.95574871140838
H           1.93979819101926   -0.63619096706171    1.16300703292399
H           2.08204519181444    0.40687598604959   -0.35240056875085
