    19
        -40.92095051
S          -0.46562216007444    0.07853531045250    0.87139496621524
O           0.53193926458337   -1.00743735488868    0.39432365673658
O          -1.72293760150028   -0.55744594972728    1.10670806807210
O           0.09233698205175    0.82997740390407    1.95062263224294
O          -0.55362442602247    1.01433842558587   -0.36099855494601
H          -0.77850788993758    0.41486799157248   -1.14912572959855
O          -0.97968208266033   -0.73662962344328   -2.15669511374361
H          -0.25774071547036   -1.36016153637877   -2.03678568999837
H          -1.78863791848997   -1.20199126162325   -1.82521138073733
O          -2.94943373454900   -1.88263732061382   -0.84047083236919
H          -3.85777405062796   -1.57568838116304   -0.86409817292380
H          -2.56197760319968   -1.52698504915396   -0.01397964923178
O           2.48665673652053    1.95416984526388    1.71859780703686
H           1.56068942039193    1.69046563449780    1.89932004540734
H           2.99178464464027    1.70798116572751    2.49577519388363
O           2.38078751637840    0.50724739330935   -0.47663383219234
H           1.35217113975034   -0.50670476689450    0.06609150186788
H           1.92307013618363    1.08977153177639   -1.08941808830810
H           2.59650234217957    1.06832653214446    0.31058318292480
