    19
        -40.92123219
S          -0.56238004121760   -0.05294627402351    1.06937697527903
O          -1.57247210036634   -0.41423595168581    0.09506671940329
O           0.70099823458693   -0.85538000607357    0.75854578349855
O          -0.27982595544361    1.34227310560018    1.16288201356475
O          -0.97772101702026   -0.59339913214881    2.45347914514467
H          -1.19159230837585   -1.54436425944838    2.28706693106384
O           1.78081724467969    2.57390479677060   -0.05551425773599
H           1.39121341139417    3.27985430417847   -0.57586307688508
H           1.07476769951061    2.25599333685334    0.53753476296570
O          -1.35730371025728   -2.85396970020372    1.21897370766924
H          -0.46558168358467   -3.10016938702916    0.95639227362101
H          -1.67884729991307   -2.22602025248300    0.55195624186145
O          -0.65254951501966    0.57251999282053   -2.21707108919599
H          -1.10397601048837    0.14902814363291   -2.94994363928687
H          -1.11544853511211    0.29123075059708   -1.40397993265543
O           1.77982286360462    0.19409925921380   -1.19728478805944
H           1.99762645386801    1.09086675522830   -0.83727781259357
H           1.24622338010612   -0.44035432583564   -0.09215231154452
H           0.98622888905537    0.33106885413337   -1.76218762612973
