    19
        -40.91669092
S           0.72250990797702    0.85003556132432    1.02614454870956
O           0.29494970615761    0.71476304486059    2.37489648365851
O           1.23326753809135   -0.50594349760601    0.49451243958671
O          -0.25535524167002    1.35130660512900    0.08680247435697
O           1.98134696082113    1.75128482120562    0.98427533490347
H           2.18568970125906    1.90658969862767    0.03343328330645
O          -1.57219076349464   -2.43253351947147   -0.30952137621545
H          -1.81373316816393   -1.80368682359579    0.40257430010517
H          -1.14114109638485   -3.17176891698889    0.12251966646103
O          -1.98118369544059   -0.51995559242444    1.56142443401977
H          -1.21767213581927   -0.19544966593611    2.06496832049347
H          -2.39124331826444    0.26276790095839    1.18614377037950
O           1.76806872027296    1.80805560976578   -1.63699231558962
H           1.83263165814179    0.98558065842954   -2.13154383783007
H           0.84151178800158    1.89636730557361   -1.36641904972653
O          -0.06800775336762   -0.75462835276665   -1.65482748982795
H           0.80532545383927   -0.69230267662726   -0.42038148047141
H          -0.65040492290626   -1.49754030979126   -1.35204254654088
H          -0.57436931934765    0.04705812881096   -1.46596693923581
