    19
        -40.91820936
S          -1.60605564235710   -0.26469186597821    1.13769651695959
O          -0.42540753512392   -0.91888903564059    1.68200006382071
O          -1.35730905469370    1.17505073962949    0.95255584068788
O          -2.11543317574964   -0.89776143438339   -0.05126867305300
O          -2.72571795955906   -0.35420403890867    2.24528476848584
H          -2.32277146301831    0.09601636951630    2.98144984694491
O           2.35785761697947    1.18049318559929   -0.33133929571315
H           2.15715196347381    0.24271581471384   -0.11576404022823
H           3.02435052611768    1.17489309020310   -1.02093629571762
O           1.46212329090762   -1.32156766332191   -0.00449328760830
H           0.73887755677467   -1.17965688710660    0.67347560331480
H           1.94183884712818   -2.09565604311811    0.29513300962271
O          -0.35145254581115   -0.63149751282723   -1.94762451342219
H           0.38169913154404   -1.08016428711689   -1.49196261973291
H          -1.14633544874924   -0.84102989988015   -1.40002931996140
O          -0.05799225575354    1.69756172616195   -1.07197328346206
H          -0.65788641947110    1.56601147010560   -0.19211667871382
H           0.90365827669176    1.66666225211686   -0.75463217007631
H          -0.20119570927334    0.78571403022469   -1.58545545219524
