    19
        -40.91966052
S           0.27719212871130   -0.74105613072780   -1.51846096628489
O          -1.17667776164574   -0.94219504931856   -1.41986749402681
O           0.58468816818984    0.64466070127855   -1.83735088578442
O           0.96320961419757   -1.22119660336003   -0.34453990290130
O           0.75392181979471   -1.61317895417980   -2.73901339033671
H           0.28320941642404   -1.22955594758293   -3.47254290965895
O          -0.29861775369167    2.05816800829343    0.10708417057440
H          -0.64341442077149    2.88892998004015   -0.22570010732478
H           0.09521490162140    1.58112531396337   -0.68023601218001
O           1.64274987874833    0.60814035735157    1.60582862600264
H           1.19842828110355    1.39979092242131    1.28123374277431
H           1.74755205195334    0.02997344351166    0.83250324120367
O          -0.17364557239355   -1.23722393716679    2.12596555816026
H           0.51183398483162   -0.54282655999449    2.28197403960721
H           0.20454797412989   -1.74782420448566    1.39099676045466
O          -1.79893020480478    0.05963863477429    0.74753494328807
H          -1.19762859670547   -0.51303047944513    1.43055437530906
H          -1.31868538099635    0.94002052784027    0.62364398056524
H          -1.65494853868743   -0.42236000320848   -0.18960777943046
