    19
        -40.90976731
S          -1.03124798572299    1.41188475354817    0.88008887793991
O          -1.96018618176771    0.79386212853643   -0.04859746718888
O          -0.59497362968361    0.49796320317133    1.91948219226460
O           0.09956223585743    2.03939196095545    0.19386421614191
O          -1.80067467734100    2.59505282334282    1.58398897176215
H          -2.56917208558409    2.16764065321039    1.94999044084601
O          -0.76387819865257   -0.55412178457432   -1.88881749744353
H          -1.10095745132934   -0.25869992080341   -2.73653572782038
H          -1.30790877480984   -0.09205028980198   -1.19278418943005
O           1.43420234473267   -0.94715846174262    1.26635252086312
H           2.11807776200666   -0.80837835718965    1.92401674563123
H           0.62775063858221   -0.45945267267551    1.59178586584278
O           0.98295536987118   -2.65459730417965   -0.99961787451078
H           0.13987290696567   -2.31185512900341   -1.31117598375122
H           1.02597474823296   -2.47170806740129   -0.05615872680185
O           1.44279558011016    0.32194388141433   -0.94820540202038
H           1.61846337537454   -0.29469103818749   -0.15045152034687
H           0.69406809101926   -0.13123070894369   -1.47756800591057
H           0.94527592210602    1.15620432029909   -0.49965744604414
