    19
        -40.91865339
S           0.65279314202542    0.68233786602714   -0.33882788890703
O           0.41491641615212    1.19201549909623    0.99150462411838
O           1.02389620278531   -0.79769842875891   -0.22547887066005
O          -0.41139173813757    0.85001156993324   -1.27689531044282
O           1.92653030819932    1.36518922740316   -0.89730276394071
H           2.55091414072662    1.47786682492116   -0.13497749152775
O           2.98904929041163    1.66837623308765    1.45856545122418
H           3.15365314502340    2.57025137489194    1.74546197975258
H           2.06136967190163    1.46654956275201    1.67720202632956
O          -2.19499804076495    0.39900595951142    0.85963583575864
H          -1.31888500214718    0.69130818979452    1.15412804401802
H          -2.33808694251617    0.85609340584987    0.02552530803058
O          -2.23406345172020   -2.18100011573701    0.07604093402998
H          -2.31716450841686   -1.26328902374868    0.41644259376481
H          -1.92338024306557   -2.71441259304949    0.80940557914552
O          -0.51034385177917   -1.83780567958007   -1.89276246110959
H          -1.22502138877739   -2.10711158031168   -1.25995070423218
H          -0.78355069963937   -0.98109624198719   -2.24576421941462
H           0.48376354967817   -1.33659204001704   -0.94195268592981
