    19
        -40.92025495
S          -0.23834630990740   -0.38649225004702   -0.78871366424871
O          -0.99401440607332   -0.21241809908251    0.44199225083992
O           0.19991205405948    0.90215405023213   -1.32139429087888
O           0.88626186888933   -1.30246595526389   -0.57405479835226
O          -1.14484521761342   -1.06837402389616   -1.85216524802907
H          -1.63555085742042   -0.33773207564955   -2.29279424640640
O           1.09666297764948    1.69953079760512    1.01251359849934
H           0.84462374090145    1.54956883121636    0.07138327328182
H           0.26117579512912    1.77077429246092    1.48463369189513
O          -1.89010338531527    1.23387164216972   -2.87295581931412
H          -1.64085768669518    1.38380682729091   -3.78797231573848
H          -1.09899300930228    1.42961830290991   -2.33165967890463
O          -0.18909432526220   -1.31616733809390    2.64561311204719
H          -0.64815257642720   -0.89802755793119    1.86988596167281
H          -0.42487488674353   -2.24569052330232    2.62705425834281
O           1.97210554205081   -0.62583393885001    1.52479946556032
H           1.22645209816490   -0.96085350818928    2.15125411035636
H           1.63268734080507   -0.99892102321152    0.57475178352409
H           1.78495124301220    0.38365153967262    1.41782853563256
