    19
        -40.91955058
S           1.11732752389107    0.19213164604058   -0.27906339715716
O           0.90433965314608   -0.59005067468013    0.91691989339993
O           0.37424688431242   -0.48696671621777   -1.44457802891262
O           0.76466113200043    1.56954006289569   -0.18363707489647
O           2.58842504431503    0.05177052770469   -0.71916799208893
H           2.74420760945742   -0.92626249345650   -0.70629615029311
O          -1.87050632223618    1.90860780563709    0.44381156868616
H          -1.85331842304419    1.35898279442669    1.25259304363594
H          -0.93915935360729    2.11795716015163    0.26927052266717
O           2.23823555166185   -2.50331511057580   -0.41382122087540
H           1.70267222809326   -2.17689864932560    0.32764235306600
H           1.62074735696785   -2.77394148492763   -1.09897738891150
O          -1.18862334600182    0.22378979394484    2.44676550631119
H          -0.82148440523916    0.55553961394221    3.26815298815934
H          -0.44448432697952   -0.15913287895350    1.94900674980287
O          -2.02403093450271    0.23326596867037   -1.50836905415937
H          -2.18480056711400    0.75014836513735   -2.30141923486204
H          -0.63474330506232   -0.22259868994941   -1.48584816094945
H          -2.09371200006083    0.87743295951383   -0.73298493262436
