    19
        -40.92022125
S           0.49422973980912    0.52359725677254    0.57561006077051
O           1.24963268834861   -0.26544375196495   -0.36321263334830
O          -0.92698117664814    0.27055779130773    0.52536941563037
O           0.99011840875975    0.31505888913807    2.00635096096040
O           0.78065360416012    2.00884172275140    0.32967200818241
H           0.96216403854623    2.11761303901506   -0.67435751932910
O           1.05754780248093    1.85083655090080   -2.17911489390382
H           0.12489427701110    1.58850299819979   -2.35006886618331
H           1.55413294780472    1.02492745994704   -2.14274165772515
O          -1.46537661863347    0.97994250635632   -2.00674049944182
H          -1.38206036168120    0.63961675142789   -1.09537103306836
H          -2.19432788718504    1.60394527451421   -1.99758776204930
O           0.25514332122051   -2.65724020945426    0.37179798454567
H          -0.38096989141475   -2.88380684408847   -0.31004794790633
H           0.75621755797348   -1.89375440108389    0.03245652023270
O          -0.61009722966725   -1.53823641003029    2.63960101182981
H           0.41595564942548   -0.42296232428340    2.42957773163031
H          -1.38126329116850   -1.09904800208900    2.26314785131899
H          -0.29961357912992   -2.16294828733743    1.94565926784719
