    19
        -40.91295808
S           0.91122913177617    0.86870931557100   -0.88082426086701
O          -0.10241944356876   -0.09405587509577   -1.23952868439159
O           0.99295535862185    0.97825070032300    0.63718980262778
O           2.19050477071386    0.66254080046525   -1.46938330707637
O           0.38656623426045    2.28878028087447   -1.27939810595937
H          -0.52527726702509    2.35327591449459   -0.95233136777454
O          -2.11302047620778    1.32362204918687   -0.51029355354637
H          -1.47706867893487    0.65486513692743   -0.86106194258156
H          -2.86720319790253    1.32074320555508   -1.10437775640379
O          -2.11427051594327   -0.65304792265965    1.49785363836290
H          -2.21532173691033   -0.29009561203705    2.38006454790170
H          -2.19912822408912    0.09121706152899    0.87912240431056
O           2.14675973042604   -1.93860778016181   -0.53909645726153
H           2.18708542882881   -1.12027832366121   -1.05632115979859
H           3.04411309632874   -2.11993492134191   -0.24870107204890
O           0.50444046567261   -1.28299432857730    1.49877624389110
H           0.81389104701316    0.02277627909379    1.10004442949434
H          -0.47329722086080   -1.29407249204587    1.39549872534438
H           0.90946148782546   -1.77169348844512    0.75276789567612
