    19
        -40.92052666
S          -0.52453186172163    0.63316958842081   -0.18023962150502
O          -0.59119751553815   -0.65441905803177   -0.82551915670751
O           0.52484823882993    0.73628217353198    0.80298857343150
O          -0.37771908464625    1.72230650958622   -1.24662844591886
O          -1.86371818700555    0.98085552970553    0.47613193279910
H          -1.81218202363997    0.64905796239935    1.44743440892215
O          -1.36164823681143   -0.05295503716157    2.72401917079273
H          -1.33456766574392   -0.97962030010210    2.39251910666852
H          -0.44384062444152    0.24325167201397    2.73135742501468
O           2.71736307390777    0.39987523451077   -0.71875573469752
H           3.32680282917406    1.11396951590988   -0.52101518682847
H           2.00602001818430    0.45179302339963   -0.05270801809427
O          -1.17162411585275   -2.26408671842205    1.24987891948088
H          -0.88326920030221   -1.80526205157960    0.43830446413763
H          -1.92603033086448   -2.80319874145458    1.00325076131373
O           1.07993389641046    0.39154169733098   -2.82109777773112
H           0.59994229320304   -0.43246531451075   -2.67686884946660
H           0.18091438457903    1.31754246556431   -2.00825762374841
H           1.85450412231496    0.35236183891257   -2.21479434782734
