    19
        -40.91567405
S          -1.09962914268947   -1.19669154587834   -0.13683624230989
O           0.23522960377473   -1.28064801959873    0.43829871733340
O          -1.36136108540546    0.22694293451127   -0.59508434456939
O          -1.37608198246946   -2.15758875276501   -1.14132300788868
O          -2.11840142573287   -1.33785869942896    1.03971563787157
H          -1.87591643916156   -0.65533412906418    1.68173839623178
O           1.08529409638999    2.22154639048235    0.71866990072645
H           0.55658887454086    1.66135659590995    1.31346930154674
H           0.65939657404673    3.08084335272385    0.70417303556133
O           1.34904519465450   -1.34597813937895   -2.00722873459708
H           0.66184877861304   -1.85335968211702   -2.44841716877484
H           1.21770660827963   -1.51076317172077   -1.06038627765079
O          -0.30334268666609    0.38791336415337    2.32641099457897
H           0.10879081097765    0.21715812195303    3.17662535938320
H           0.07490602416859   -0.26496659573765    1.69406073688078
O           0.61070798451097    1.18964903683580   -1.70917465078156
H           1.08808692569788    0.35865589996603   -1.94196417652374
H          -0.54046318097221    0.68685316032598   -1.14949327178998
H           1.02759447743431    1.57226985891688   -0.90325420523123
