    19
        -40.91346204
S           1.00554767476390    1.29629380751631    1.22535420951027
O          -0.13978934649664    1.77546249916181    1.93422076834747
O           1.48259577739618   -0.03202682851430    1.78963622297372
O           0.86419268604591    1.22076863987145   -0.20249202817805
O           2.21871735594447    2.24350922712948    1.53396892493100
H           2.19050924995449    2.44179782674608    2.46792204622621
O          -1.66649573477442    0.33740047291790    0.08991036611941
H          -0.85100250373193    0.78627855298733   -0.19707135073886
H          -1.95844809595744    0.84008738682165    0.85633507767164
O          -1.71982645422152   -0.90770402211786   -2.42915147328861
H          -2.26229412784466   -1.69815050126764   -2.43036356831056
H          -1.94943226883171   -0.40888758892278   -1.63229902237147
O           0.91977417945012   -1.14462030605684   -1.71248690906609
H           0.07303421882979   -1.08423343717374   -2.19430538225029
H           1.14441218035015   -0.23722387146013   -1.46453032052934
O           0.05462060241444   -1.70655831003893    0.67066921600094
H           0.90060160714315   -0.83868226544928    1.36384495403255
H          -0.76959309172385   -1.19118603614466    0.57785556855190
H           0.46287609120609   -1.69232524598367   -0.24701729966434
