    19
        -40.91679573
S           1.34237620438045   -0.75781183852442    0.18314490508114
O           2.75897439246249   -0.67339783745130    0.29007472361350
O           0.58322204995915   -0.27275879408511    1.34328158293766
O           0.78562520498148   -0.17152175666998   -1.03907802750166
O           0.99159678723358   -2.32057324457664    0.10221894256530
H           1.85938659241386   -2.68853145213039   -0.02631897317666
O           0.95197868018880    2.44809446595397   -0.92681068849733
H           0.76472429624732    2.84186889697231   -1.78145351828216
H           1.08764442382025    1.48508161006951   -1.07892904075022
O          -1.62604778899005   -1.74733627370081    0.95216923639064
H          -1.31899920617926   -2.60119820841426    0.63980888135614
H          -0.83116535620902   -1.29690008247440    1.29474188026556
O          -1.80667055637163    0.18425211427568   -0.83120290385816
H          -0.89827494552214   -0.03136554904796   -1.15216033913805
H          -2.03589707284238   -0.57533595717148   -0.24349319011706
O          -0.80715353988677    1.75450729677772    0.79337532742384
H          -0.15845849703352    2.25401127009465    0.19393683122597
H          -1.41347372470677    1.16296255038104    0.08942870638360
H          -0.22938793389964    1.00595279980436    1.19726568405398
