    19
        -40.90459484
S          -0.11936212505945   -0.61988364584642    0.87147254767978
O          -0.82773307704666   -0.69716394246524   -0.37617156933664
O           0.49757922016360    0.65623644009481    1.11575129307699
O          -1.03183796813739   -1.02251831389306    2.02536517738184
O           0.96714675026890   -1.73700940048387    0.94110724154392
H           1.58201622139001   -1.56372943429669    0.20490659543212
O          -1.74274296994299    2.16119329819802    1.34267556699524
H          -0.85998537141970    1.76674191356992    1.22551411404216
H          -1.70361786233357    2.68269827629954    2.14737141555433
O           3.28917362957603   -0.00612866249651   -3.61371186506400
H           2.79936197544355   -0.17567356870152   -2.79813291129660
H           3.72141620931677   -0.82857231682026   -3.84838391290030
O           1.75382730159726   -0.36742731698650   -1.21295048386780
H           1.85927039842722    0.47616210325268   -0.75932325728044
H           0.81823567970115   -0.42092295619548   -1.45586100506992
O          -3.16305061761895   -0.08354445391001    1.08315848675212
H          -1.99653219705910   -0.74160033105796    1.76685614518638
H          -2.87136601680223    0.85234670934753    1.16978026698629
H          -2.97179916044066   -0.33120437771406    0.17057615412100
