    19
        -40.91855624
S           1.06297102154834    0.46346576214560   -0.11065935208999
O           0.61492598361889   -0.86677283714946    0.25285244400991
O           0.56220700128666    0.78851275652109   -1.51928569989023
O           0.72223417046910    1.48540289161325    0.82259453114388
O           2.59308802065978    0.43108767339652   -0.29999968143844
H           2.78667607538052   -0.42802060264854   -0.75506422266783
O          -1.51102383242015    1.39009889839178    2.37186121039425
H          -1.21457540574789    1.33918785335584    3.28209929169874
H          -0.72122011468615    1.58502442081913    1.83749214630037
O          -2.07923025633569   -0.62534655749321    0.66015846932586
H          -1.15586226553655   -0.92336840685921    0.62834766243664
H          -2.10293586216380    0.05507125588635    1.36153794378221
O           2.53423317820598   -2.02525190296504   -1.14367046604668
H           3.05234371560512   -2.66661857210163   -0.65097762452686
H           1.67999754091060   -1.93320014447249   -0.68157364964597
O          -1.94998894460837    0.71987606253723   -1.54410495069671
H          -2.26410927939260    0.16212871301025   -2.25972852974511
H          -2.13776530562908    0.22370525728173   -0.68896605006380
H          -0.47196542100468    0.82501748864460   -1.56291345223127
