    19
        -40.91344951
S          -1.32204523074558   -0.75165779385967   -1.45094637507041
O          -1.45155578365244   -0.42908142268273   -0.04580197505329
O          -0.75318933330330    0.45205449206204   -2.18764882900060
O          -0.62218739388953   -1.95382882706523   -1.73512086170874
O          -2.76345914696556   -0.85025894564214   -2.05738480342137
H          -3.23548143522706   -0.05894879409690   -1.80451989050336
O           1.05394980707115   -1.32505922437597    0.39981930014357
H           0.10277278304534   -1.11634989441272    0.43432012199076
H           1.11237806947729   -2.08582008265075   -0.18564728065781
O          -0.25408216672395    1.76052080856499    1.21421272212450
H           0.26449503366539    1.35533917086864    1.93496119735724
H          -0.91715795440185    1.09894231784368    0.97078928231673
O           1.44611154983657    0.21510114327039    2.71071388259095
H           1.42937490711126   -0.49867351085132    2.05668661182681
H           2.36271522592959    0.47482375125530    2.81706367982752
O           1.20905661112550    1.10859836662055   -0.83619617260447
H           0.13677738997705    0.79625159713945   -1.68450697148432
H           0.73121176495577    1.56542151121245   -0.08221816772775
H           1.47031530273540    0.24262533681888   -0.46857547096070
