    19
        -40.91058111
S          -0.42535072053655    1.03652563248601    1.58356408475560
O          -1.52959400598644    1.38718730489736    0.59468590483129
O          -0.61230862479337   -0.30062414656538    2.07500705369264
O           0.86168500895606    1.34995154696501    1.05345099002879
O          -0.72374628956526    2.02686665885442    2.75963195380584
H          -1.49998622980753    1.68864386355727    3.20012482979912
O           1.90130298218647   -1.94777012713757   -1.42088690334951
H           1.93702586183746   -0.99324952897858   -1.54783953112818
H           1.12209266256891   -2.11203902949263   -0.87775621161524
O          -0.58863015656706   -2.02251690859063    0.05424067622721
H          -0.54268333142420   -1.49092184025511    0.87517436250055
H          -1.00481502394150   -2.85567272996999    0.28248020574810
O           1.45458630795148    0.91490703740869   -1.50816380646249
H           1.39246775451878    1.08970085007108   -0.54791276330919
H           1.94502155748643    1.64307897072570   -1.89307652962044
O          -1.09704667497898    0.11262471500799   -1.48199826179364
H          -0.19188248985454    0.39959413780044   -1.73140168250469
H          -0.99667473227516   -0.79597526631710   -1.12881719906131
H          -1.40146385578746    0.86968885969778   -0.34050716245971
