    19
        -40.91753830
S          -0.28348786208222    0.73927134510775    1.03825472015440
O           0.62710500195406   -0.39768783743597    1.02802402199630
O          -0.55444602630887    1.14604791222104   -0.37122952544011
O          -1.49913030767993    0.46342625799366    1.75727677472666
O           0.42122347477969    1.95018530153873    1.70960741905460
H           1.09923486830247    2.24450766445809    1.06315953667654
O          -1.84096744709590   -1.90651709862191    0.74751919965086
H          -1.10208953273304   -2.35073894890225    1.17329326878944
H          -1.90524037437995   -1.03551753219588    1.21504972564824
O           1.38273782790293   -1.55825403942638   -1.15490805594377
H           1.28116672863159   -1.06848016361371   -0.29702390080491
H           1.75450090494084   -2.41565176891623   -0.94074387758954
O           1.69923878345786    2.52741256836872   -0.52102942847091
H           1.59059721076196    3.41979811323979   -0.85771583712477
H           0.90401404450252    2.02754749669001   -0.78582540459519
O          -1.06693947320737   -0.99167517726598   -1.48495167039446
H          -1.48335157831472   -1.46735044396437   -0.66202394027820
H          -0.92299901613508    0.00316167921562   -1.11228509690047
H          -0.10116722729626   -1.32948530849219   -1.54444792915323
