    19
        -40.91597551
S          -0.88018668374925   -0.60209046668533    1.49646026011626
O          -1.28342173411821    0.71908937617828    1.94517053319524
O          -1.38198128072718   -0.86046867316763    0.13281288354932
O           0.52665449894229   -0.86738103982562    1.61797898266841
O          -1.63519212562975   -1.64198446475621    2.41591187560381
H          -2.53855979817008   -1.34559930908866    2.36441976282402
O           2.07131685624792   -1.60737872200688   -0.35437929125752
H           1.44118722003323   -1.40584322946343    0.37809037887554
H           2.94297737971865   -1.44678716844498    0.01238721324011
O           1.35230255999040   -0.17421629871781   -2.40810890653725
H           1.67895398922376   -0.70651939185154   -1.62865076989887
H           1.13733758299096   -0.81346679500225   -3.09042405622505
O          -0.14268280889660    2.46861958158022    0.43437708546373
H          -0.50656916767470    1.84622974509571    1.12105887693095
H          -0.62202571229800    3.29299099964061    0.54163824390040
O          -0.73996089362299    0.89338848023506   -1.46331890103025
H           0.12245290094177    0.51552461351775   -1.89741363142319
H          -1.08495673704347    0.10721873607858   -0.81200076923828
H          -0.45764602612071    1.62867400665626   -0.80600975076032
