    19
        -40.92217277
S           0.64850807712909   -1.21731398682042   -0.06858055410296
O          -0.80100161959212   -1.11463328556492   -0.28022406694684
O           1.26242507970761    0.09853477472234   -0.03941283596943
O           1.00057461200529   -2.09416144175451    1.01112762053107
O           1.21007736337124   -1.88708219162277   -1.40847018024284
H           1.30001536735012   -2.81160835907086   -1.19705058155042
O          -0.19218048150801    1.86690170657093    1.35729654321315
H           0.64397492240340    1.54108480009737    0.97994051431101
H          -0.44103171167721    1.15624096107903    1.98888739355776
O          -0.61105014493930   -0.52001520808518    2.48225462590290
H          -1.45430198375615   -0.92728603167828    2.27023458444471
H           0.06498219202187   -1.12161066930212    2.12312226066141
O           0.51127240835929    1.20012674573192   -2.28771703299895
H           1.00072263372701    0.82613827663127   -1.51920179965570
H           0.53161537472990    0.52535384195842   -2.96910260953756
O          -1.48382708452786    1.22861449454406   -0.68245530644655
H          -1.03517499390271    1.64125957916714    0.19659573366160
H          -0.82702848248257    1.41310738140627   -1.43382421290115
H          -1.32857151842325    0.19634859198526   -0.52342010593635
