    19
        -40.91974985
S          -0.50291026399928   -0.52096469665129   -0.43023766832262
O          -0.28867412464261    0.81910645731090   -0.90211963786133
O           0.25445705560263   -0.83265803312404    0.76448027258761
O          -1.99399556344140   -0.76055554826800   -0.18294456298756
O          -0.19533167862881   -1.55721495723909   -1.51423643245571
H           0.79006305675738   -1.53699412548663   -1.78014064282701
O           2.37549134644980    0.55118330588620   -0.21067539890963
H           1.85159029504659    0.06510470907557    0.44509821505624
H           1.74770623564385    1.17273317564567   -0.59970562669708
O           2.30785692202952   -1.41470509418191   -1.95693981341710
H           2.51290788845687   -0.63275592372005   -1.38075178265339
H           2.76146959925043   -2.16876700881648   -1.57247815267867
O          -0.95409076998887    0.87406567605224    2.46794090082149
H          -0.41999147727660    0.24004627040025    1.95539385218289
H          -1.26733952200540    0.40249475963314    3.24251718832289
O          -2.56191014892024    1.61355426094328    0.45591749225397
H          -2.40622550772465    0.15202743842670    0.04682498408538
H          -2.09441577750551    1.55972396094772    1.31752567484354
H          -1.91665755512532    1.97457536316262   -0.16546886137315
