    19
        -40.92071365
S           0.81844248890306    0.12556558566573    1.23054407959387
O           0.48759284755328    1.20784839895082    2.12862282121446
O          -0.21121251128743   -0.88105541890816    1.11515373990101
O           1.20601816881191    0.62535388504624   -0.10382294418543
O           2.10809605238934   -0.57614701047340    1.81409367234386
H           2.58371899254531    0.13387414621760    2.23589428598296
O           1.38351921799953   -1.28349455580031   -1.98043932308767
H           1.88195298649161   -0.94525561058204   -2.72585915045418
H           1.47689428255286   -0.62793565355925   -1.26092928608268
O          -1.18125853685836   -1.41163012127738   -1.26926792829580
H          -0.92962104200915   -1.47965219715180   -0.31947829076181
H          -0.34614760000255   -1.61077451446655   -1.74326251670097
O          -1.96101034566629    1.37238852179317    1.21835998950878
H          -2.30968888206284    0.52585851345604    1.51291789963999
H          -1.09300608982589    1.46513444168055    1.67778697746858
O          -1.05011874017626    1.05643455082123   -1.13183849321341
H          -1.23451753989503   -0.01070993053657   -1.31403239362728
H          -1.55757610133726    1.28159990814680   -0.26394736846903
H          -0.07207766818894    1.03259708073728   -0.82049578074779
