    19
        -40.91505814
S          -1.20779147173942   -0.82960049965398    0.31437336823593
O          -0.79598071224026   -0.31168101556604   -1.08329688336477
O          -0.23252854071968   -0.36684075234834    1.28062936283477
O          -2.55634549709313   -0.49299659921295    0.58647479739563
O          -1.02427271266238   -2.35899544327851    0.15088050592401
H          -0.05356137230103   -2.50826164780962    0.10365041906254
O           1.92886612045200    0.50867944615204   -1.04518173654619
H           1.09945338731038    0.23211213578270   -1.45224393170037
H           2.31417846081773   -0.29126275128011   -0.67503814953620
O           0.47639181273054    2.19303175581005    0.62450899571299
H           1.18031565665601    1.90385702686284    0.01823546466314
H           0.27131854899986    1.40379445509697    1.14906103963832
O           1.59513489915822   -2.04095983672105    0.46872069790922
H           1.14172807992602   -1.30478094827986    0.93053094093651
H           2.03612178156789   -2.56548701013034    1.14097850214446
O          -1.67463816229590    2.00618567298347   -0.83863659585903
H          -1.18686101806392    0.65504427587722   -1.14548916873996
H          -2.41433215062727    1.85959635935688   -0.24106171861194
H          -0.89719710978911    2.30856537637401   -0.28709594017125
