    19
        -40.92052665
S          -0.47376043303668   -0.20913172753256   -0.66360802915634
O          -0.42959768670029   -0.98808490319686    0.54877086498643
O           0.36884586933104    0.96040288978415   -0.63340760086968
O          -0.09753615203270   -1.06804280537899   -1.87427479388857
O          -1.92586619046295    0.17612644769276   -0.96046121219447
H          -2.38762880858918    0.31165313912902   -0.05238208930648
O          -0.75121829388110    2.37594522737167    1.36074645315286
H          -0.90446616072610    3.26713237279744    1.04001555101304
H          -0.20857454695497    1.92867598486555    0.68410963372548
O           2.14663247133284   -1.76057286636103    0.59393615373431
H           2.16835044194426   -2.70968003009214    0.73236946963414
H           1.22208405165880   -1.48210751239250    0.73532989024552
O          -2.63732900170093    0.49590470514273    1.44071094729953
H          -2.06490485568699    1.28088941579569    1.60005475385545
H          -2.13136665702583   -0.25944775589108    1.76238274373062
O           2.38369307696904   -0.60737171283393   -1.79664588002004
H           0.91532946792374   -0.96041391730947   -2.01034786285850
H           2.27232821384790    0.32201003041482   -1.56418332913549
H           2.53498519378615   -1.07388700200537   -0.94311567394522
