    19
        -40.92025487
S           0.42433042986892    0.32420540628276    0.73761074993807
O          -0.66338774427917   -0.63464996899471    0.61959641652488
O           1.65485734409355   -0.22305571647366    0.15808379375683
O           0.06002504531039    1.60632515207631    0.13766710229353
O           0.73297394412267    0.56293792740272    2.24281341913295
H           0.11364737235338    1.27071880695258    2.53278918763012
O          -0.84069344821408    0.46559085313624   -2.04751463610960
H          -0.52162904196714    1.05082649352507   -1.32132638169753
H          -1.60542956298814    0.01067882676472   -1.68126348849832
O          -0.85903124650841    2.64853858199449    2.36383394998158
H          -0.70569046612977    2.48889570185730    1.41084940968950
H          -0.43430508687265    3.48347743524237    2.57433368314508
O          -0.31102188612386   -2.87304277882322   -0.63902426811909
H          -0.56547135655061   -2.09535144399067   -0.07508384942350
H           0.16423322164775   -3.47636238947844   -0.06446316285692
O           1.04651997193202   -1.22913980729834   -2.00098139784654
H           0.54525973726270   -2.04016972416688   -1.61035799344319
H           0.30240607268010   -0.54985177221030   -2.22555225909573
H           1.46240669036458   -0.79057157378602   -1.11201027499626
