    19
        -40.91359127
S           1.00908562802223   -0.59671054015177   -1.59450412307607
O           0.13042503763876   -1.57940389699044   -2.14685383455382
O           0.42746148987912    0.70597890695887   -1.40644690214656
O           1.66051379841692   -1.09078442537248   -0.31944456167021
O           2.24176919753006   -0.42213024772147   -2.55213253085099
H           2.51138022782966   -1.30009448483847   -2.81400868841659
O          -0.70536659766648    2.28534981482832    0.54385361559677
H          -1.58634717420908    1.95626083813361    0.34443286562825
H          -0.13738874882951    1.95554510358484   -0.16942132697138
O          -1.86469993140236   -0.42072578437045   -0.51742308512854
H          -1.16404399259484    0.08421201428956   -0.96400607921972
H          -2.02704737038301   -1.17282138746459   -1.09372311722235
O           0.13683175682111    0.94381747885103    2.70374375561333
H          -0.40608427433386    1.19501037545359    3.45240382993372
H          -0.09600804889325    1.55280645452578    1.96677866579820
O          -0.13975519799945   -1.29225260870444    1.34517323582205
H           0.90756450804466   -1.23467748442387    0.46554139287667
H           0.01683579291039   -0.53050699486575    1.96333105196295
H          -0.91512611085081   -1.03887314158746    0.79270582594223
