    19
        -40.90910342
S           0.84971405746181   -1.20057382362187    0.27652205668751
O          -0.22966366424825   -0.85666736714213    1.16300158140099
O           0.34360177505038   -2.11265177411199   -0.83670983914947
O           1.61523190344425   -0.11614250824726   -0.23278476417276
O           1.80721471751748   -2.17191227605312    1.05215735515675
H           1.25281485160429   -2.86981218857060    1.39328365941809
O          -1.64340354759404    1.57582950777819    0.50756819708844
H          -1.59427364742787    0.62464474243980    0.65959206601981
H          -1.11766595225301    1.96301843498011    1.22427532479139
O          -0.02781318008649    1.58301679255032   -1.62175642496957
H           0.75935021710891    1.27671707960351   -1.14638140009788
H          -0.69923020730475    1.76342658060619   -0.92429918915289
O           0.14790889954338    1.44432835573424    2.63385779560070
H          -0.06596206710775    1.27116814064144    3.55214082141551
H           0.13213577008024    0.58889030503737    2.17564602653381
O          -0.68764465515760   -0.68788885865212   -2.58793034854182
H          -0.21994392699601   -0.79563051422052   -3.41969640784445
H          -0.12469100898798   -1.54308493350775   -1.59447212831847
H          -0.49768035458996    0.26332432505857   -2.27401439120326
