    19
        -40.92079112
S          -0.02301872956055    0.66400587440569   -1.32911049093689
O           0.96880480478831    1.21063853384360   -0.40102518278073
O           0.56159656696240   -0.21785734708104   -2.30629424495624
O          -1.15469233658110    0.09464648902609   -0.61069241274211
O          -0.61557182545928    1.90506435134569   -2.11232655556662
H           0.10700288654486    2.18055606487612   -2.66777199711856
O           1.75512839635925   -2.01990524897069   -0.78604862257442
H           1.40404227143923   -1.33640374814572   -1.39719796810603
H           1.90626582787551   -2.80251738169859   -1.31943288276112
O          -1.85313790434079    1.35899271728558    1.57873758649663
H          -2.61238209348810    0.90911478596047    1.95487919588783
H          -1.73760254508215    1.00078805012698    0.66703306831993
O          -0.08873192471416   -1.68217334633167    1.06678750358734
H          -0.68301924234811   -1.25196486672040    0.41906958494708
H           0.67607246476164   -1.98189417788775    0.52138616078351
O           0.54978217159791    0.55926483089303    1.95003718741455
H           0.35745637209588   -0.46734684800201    1.73379278176253
H           0.85635187827557    0.90663414338816    1.00338112926396
H          -0.37434703914104    0.97035712378920    2.03479615905040
