    19
        -40.91793144
S           0.67010969913945    1.57836994594579   -0.38625349174363
O          -0.77777061834181    1.37207214982543   -0.55182487054500
O           0.97102553089438    2.36821777578331    0.78555860082415
O           1.38604493780275    0.32035393371095   -0.44057672231537
O           1.12986042264977    2.40964922724754   -1.65024159119270
H           0.77278294258459    3.28162865236963   -1.50486465451760
O           0.80909595235871    0.21018817888037    2.26195988073629
H           0.92158428685072    1.14054908894759    1.96170727765107
H           1.39309272144545   -0.28721444615660    1.67726376169065
O           0.32923338911409   -1.63386178715826   -1.81391334102637
H           0.71782522505816   -0.83783889596962   -1.37881272322535
H           1.07074198605825   -2.20606701147878   -2.02035739083665
O          -1.44495674354856   -2.33880025381150   -0.02769323914495
H          -0.76065553523884   -2.13673672503754   -0.72324467297563
H          -2.26734615362111   -2.48738023059551   -0.49879631137013
O          -1.49156663993749   -0.14488090725060    1.24866613189857
H          -1.29426477784707    0.54979308658320    0.45685375660151
H          -1.50635111708293   -1.07538851775982    0.79509342952626
H          -0.62848550832234   -0.08265324413186    1.80947616998951
