    19
        -40.92079116
S           1.00823602435674    0.11392874295194    1.08516516469039
O           2.32687671871607    0.00091624762829    0.51713917252309
O           0.20136156430264    1.18461871309276    0.51647534251682
O           0.28051588193993   -1.15653477477613    1.07377231388669
O           1.18638626713677    0.49941493756049    2.60991427759529
H           1.82337622798163   -0.13461718585704    2.92442350826627
O          -0.50008639840919    0.31576051279958   -1.90394539249286
H          -0.20528137508097    0.89205415823520   -1.16988407917193
H           0.30315426051616   -0.21111193069354   -2.12623643262951
O           1.81441382983100   -0.94551961165701   -1.89677818066003
H           2.06920006354930   -0.67546831126187   -0.98792434799354
H           2.57468407839950   -0.76317110587988   -2.45230143818866
O          -2.36826333700799    1.05491505244502    1.02639799427176
H          -2.79278299969588    1.81304575290466    0.61980095964675
H          -1.39771631566532    1.22893319786284    1.00099269150517
O          -1.78944918560856   -1.06806073608670   -0.28083007828614
H          -1.34227848509074   -0.56711417301748   -1.10958654498863
H          -0.94232001903488   -1.25623001913423    0.31726121407531
H          -2.25002680119753   -0.32575945754174    0.23614383568628
