    19
        -40.92003355
S          -0.86752816190359   -0.10204027248171   -0.08861512264611
O          -0.18642987108762    0.78032365153094   -1.00201045392180
O           0.02457956841925   -0.74202144204570    0.84880252706005
O          -1.96041716728974    0.65003148877369    0.67444328128823
O          -1.68171331079718   -1.14580235313365   -0.85612848400199
H          -1.07120335158485   -1.74875139634722   -1.41050234043253
O           0.01600423527043   -2.60839562362961   -2.06005550018767
H           0.84371980637279   -2.12551473590422   -1.79944691346622
H           0.06022423701904   -3.47305231852102   -1.64440904040547
O           0.74209101151516    2.64641518273139    0.68210604982272
H           0.49143298160810    2.02247168138143   -0.02620554586685
H           0.46382627811584    3.51629313677717    0.38828803282021
O           1.91864752600569   -1.11361668305163   -1.02913998186407
H           1.79896152315107   -0.25256962903729   -1.44252933056363
H           1.46125603853665   -1.04501783427240   -0.17292396057976
O          -0.51856286313921    1.32851051517740    2.63321151891040
H           0.03627046731815    1.95040914202797    2.11084552939655
H          -1.53658996466335    0.96853038030194    1.55358662527901
H          -0.03456898292206    0.49379710907505    2.64068310938302
