    19
        -40.91647037
S           0.03454880122487   -0.77917780607167    0.93092401572715
O          -1.37612657508906   -0.59413530214200    0.67588109450221
O           0.63725232906354    0.07044670893800    1.89924285942299
O           0.25680780479995   -2.25835751890502    1.33845693453148
O           0.77143652093870   -0.64720875277041   -0.41427726713737
H           1.55046290426550    0.04388641501331   -0.28133189359036
O           0.75835233863875    3.01686094975897   -0.66607075297795
H           0.87342883556255    3.59641295730906   -1.42095921640899
H          -0.03269139649484    2.46643578788820   -0.85357706392466
O           2.42297381325730    1.12873785118707    0.15146630079874
H           2.20718475786376    1.04913485473096    1.09168975590909
H           1.92985387780366    1.92787599174914   -0.16070899918564
O          -1.17904692907389    1.25338669674802   -1.30635596247185
H          -0.72988404178764    0.64615713782660   -1.90066042497674
H          -1.43459925806902    0.71574113190291   -0.53856516434161
O          -1.81807225357791   -3.12028240401156    0.01520440647586
H          -2.49948770817688   -3.55302832390471    0.53555730640001
H          -1.97951564343074   -2.16065924291182    0.07864599797527
H          -0.39287816766126   -2.80222715233741    0.82543808328966
