    19
        -40.91647029
S           1.02180191520933    0.26006858725188   -0.60180093398690
O           0.86466886256554    1.67098288258990   -0.68863944075043
O           0.26161309271255   -0.54774543405959   -1.52854097182368
O           2.52020340479323   -0.09966920058642   -0.77154307635909
O           0.68104099406978   -0.21934675860127    0.82087405361103
H           0.41764765791712    0.62637428501337    1.38442342026521
O          -0.03945034452623    1.92775847650610    1.85629615546854
H           0.29579136215636    2.42257564458963    1.09488692245828
H          -1.01724193024974    1.86744469242136    1.71591322472379
O          -1.97949790272365   -0.86485150491427   -0.02586947959677
H          -1.32867598583259   -0.74335267998270   -0.73691108971905
H          -1.51518890307571   -1.35269100694532    0.65981779987938
O          -2.55904723121999    1.47348074785140    1.18674377868534
H          -2.44122729804984    0.65664218259239    0.65506209966783
H          -3.29005799725265    1.30772432884458    1.78428856570145
O           2.02802740175704   -2.51920268073183   -1.60911110816411
H           2.34501045539007   -2.73185039477389   -2.49037369706592
H           2.56488135381927   -1.06520902179900   -0.98817412362265
H           1.16970109275466   -2.06913313527569   -1.71734207942382
