    19
        -40.91647012
S           1.01035743868870    0.15346185560185    0.65201092128527
O           0.54841811536725    1.18249935912193    1.51831389881103
O           1.39439441937164    0.53985484790069   -0.68687785567196
O           2.21819538831673   -0.56394583387987    1.30769482931701
O          -0.05760704786410   -0.94845573725346    0.52977149974965
H          -0.87120601886270   -0.66743534009126    1.13076964495630
O          -1.02698157724973    0.25052495741872   -1.88578090213361
H          -1.05259440998393   -0.69671994208736   -1.72536651390408
H          -0.14226279326218    0.53316653656219   -1.60080894293448
O          -1.88382273680234    0.04427385676317    1.90123130954562
H          -2.41180784348546    0.48614677621698    1.19034814299788
H          -1.28233766977264    0.72715856447687    2.23128277354274
O          -2.94223331775595    1.19157520378605   -0.23593032521300
H          -3.78702769884281    0.98323194161144   -0.63814058800464
H          -2.25379673794977    0.96778590868525   -0.89906259816857
O           3.19836272030157   -1.37876156433027   -0.96650551089976
H           2.57544600934494   -0.67745759896486   -1.23318985198493
H           4.08053565209267   -1.06500324352634   -1.18018786067142
H           2.68596810836142   -1.06190056800441    0.59042792928413
