    19
        -40.91907739
S           0.71159880406676    0.88140534452015   -1.22374542152444
O           1.54984319787145    0.04750773952800   -0.39353338855173
O          -0.67725807596202    0.37509093616334   -1.24350345865772
O           0.76060033640485    2.28757216978042   -0.89799379913512
O           1.23096387509314    0.72756826808931   -2.71116853873192
H           0.93475540370002    1.51411046547842   -3.16185993195921
O           0.15734206771222   -2.17323091060630   -0.70133524226814
H          -0.43593451826427   -1.64739193561230   -1.25353697738799
H           0.91383987238582   -1.56993921964157   -0.56253237566063
O          -1.01579541927003   -1.96977696086884    1.61752882192700
H          -1.76202006995390   -2.57132938202683    1.64627464642641
H          -0.50969544542635   -2.17585976818450    0.77835425066479
O          -1.45076627698312    0.46766462234977    1.11231316684991
H          -1.32846632092940   -0.51986039176640    1.41492359424389
H          -1.24497579352176    0.45839628318269    0.07732263302922
O           0.69615750327332    1.68322235167056    1.65286836923147
H          -0.64465174308997    1.00410827464918    1.49279583605972
H           1.36331882884245    0.99271765729933    1.54612648283387
H           0.75114374426934    2.18802444586663    0.81070133260890
