    19
        -40.91893409
S          -1.16988863046551    0.76056072994625    1.03569739203371
O          -2.22045553025159    1.22817959863865    0.16731281102363
O          -1.05164046031930   -0.70552676363374    1.02157266612723
O           0.12085202723416    1.38898625176159    0.83414925397625
O          -1.60987876167814    1.13500780140831    2.51423439569868
H          -2.55920231416773    1.06701134722178    2.47839934469402
O          -0.52544095646680    1.05483492442540   -1.84807023874038
H           0.15573160292216    1.58104173250772   -1.41867026985507
H          -1.29548145454419    1.12402785202544   -1.24784600706844
O           2.41121842986942    0.18019449824159    0.77320232697398
H           1.60137635102842    0.75269229427719    0.79988896475918
H           2.80112594501036    0.22340403438766    1.64819690764562
O           0.30115164360189   -1.40013259440170   -2.25958732725500
H          -0.47512014454978   -1.89581126367759   -2.52757608729260
H           0.01402458485997   -0.44962597800404   -2.19746677682760
O           0.96490011774530   -1.80916327903681    0.14587205873155
H           1.68163808276933   -1.11059379826066    0.36737151374743
H           0.07956191821888   -1.39485497307493    0.58299722905471
H           0.77552753916118   -1.73023241474173   -0.86967815742473
