    19
        -40.91647033
S          -0.45922083778546   -0.08480494879906   -1.12100692796425
O          -0.83887462186619    1.23907471960652   -0.68215069074541
O          -1.38826097577935   -1.13711297671935   -0.89203500204655
O          -0.13169379667114   -0.01122796798808   -2.63453582809452
O           0.89030966005178   -0.42368914338267   -0.46235361009102
H           0.79120472006895   -1.36309905315065   -0.00409261890331
O           0.16296020655859    1.11954429325110    1.84022895433513
H           1.06950568119968    1.03202684179583    1.53324455614582
H          -0.36222234306655    1.28400085889089    1.03956720897790
O          -0.36024658958371   -1.31548639497823    2.87499072371237
H           0.08735452848034   -1.36447955788404    3.72127686970253
H          -0.27664336105144   -0.38693400502456    2.56733929868808
O           0.31817841542443   -2.57707325307827    0.64975326131492
H           0.08054700779806   -2.24742036999172    1.55209702243754
H          -0.51956566117012   -2.61949546845466    0.16669177850538
O           0.55728034872104    2.50198443635425   -2.54459733199960
H           0.27586543822645    0.87599271051138   -2.80119454024159
H           0.04034989436351    3.09985139327218   -3.09023166674323
H           0.06317228608449    2.37834788575726   -1.71299146699579
