    19
        -40.92135387
S           0.15403344561536    0.89267976691678   -1.27099518585662
O          -1.28867816730476    0.96796649199489   -1.20048088429796
O           0.79773346686006    1.78794165681953   -0.30867411223649
O           0.66351129580879   -0.46499165196531   -1.15960007805776
O           0.58090036659194    1.40058115463454   -2.70270827192931
H           0.15229283792137    2.24872248065062   -2.76301840763723
O          -1.20841249759880   -2.15967793028690   -0.23101159958436
H          -0.48739787643681   -1.65584232771182   -0.65652010654932
H          -1.84978038272373   -2.34284388109887   -0.91971133187748
O          -1.81200679046996   -0.00500056454278    1.17466143300094
H          -1.69524328080622   -0.94338412041654    0.89138947488450
H          -1.82400626281848    0.48494159272827    0.31855332043142
O           1.95859839727610   -1.03320727486448    1.07642209691154
H           1.55649126989513   -0.94943337373741    0.18207988570224
H           2.88665106279980   -0.81142813030311    0.98068666388815
O           0.40090545984294    0.79498191461831    1.94024249621063
H           0.59159162898263    1.35752420755528    1.08818552107699
H          -0.60905925325892    0.42449650458099    1.74356802542418
H           1.03187526981881    0.00597346441412    1.81693104053244
