    19
        -40.92343652
S          -0.26366269412071    1.28656608657812   -1.05852835724289
O           0.68902434994534    0.21379074510918   -1.29671943484577
O          -1.62391035945905    0.80566607844376   -0.94183268891256
O           0.12437464712164    2.11040199689317    0.08716436143090
O          -0.19596537521509    2.22598956973338   -2.32149576267728
H          -0.82345653761863    2.90937779980656   -2.10737861595875
O           2.11239519431574   -0.77710113591251    0.73128939174537
H           1.82246798461155   -1.69102235348195    0.63573008939419
H           1.85162815457047   -0.33851101736832   -0.10524148188741
O          -1.56641355508075   -0.74243346933646    1.16568044966210
H          -1.14068362183856   -1.49863697365343    0.71001171338867
H          -1.81374430273774   -0.13442675583111    0.42855107103707
O          -0.10553224201090   -2.20605015763744   -0.54828974176673
H           0.15392769674707   -1.35365091696153   -0.96297352212509
H          -0.56363201366924   -2.70518904434178   -1.22582753367283
O           0.37481574780697    0.56684423831001    2.01727450737579
H          -0.49564806543397   -0.01840051089930    1.80778445634356
H           1.16767739237788    0.01162286508976    1.67198072295810
H           0.29633760968870    1.33516295545517    1.31282036575526
