    19
        -40.92246920
S           0.35992705346346   -0.54206407329158    0.84949274775808
O          -0.89494094226031    0.32215817318213    0.75554237961193
O           0.38918996872547   -1.50692341568233   -0.20776462975404
O           1.51790607434215    0.31774711565749    0.92846309907534
O           0.16786871718751   -1.27035062140745    2.19757606672341
H           0.22107222648007   -0.54558847474600    2.86994216704132
O          -1.31763340033391   -1.51705649628197   -2.28544915149380
H          -2.04486501661310   -2.11377577816635   -2.10090955367616
H          -0.64770055674548   -1.67405351941551   -1.59315153744856
O           1.47868441937981    0.85778736920693   -1.71671471440401
H           1.68763652131080    0.78203409897628   -0.76991107787012
H           1.68158351798733    0.00108104870473   -2.10057080525811
O           0.45189432112207    1.07730736128445    3.27864256147310
H           1.10205369306530    1.14989201146840    2.56090681592084
H          -0.31790302546683    1.58232105923535    3.00199679970356
O          -1.16055826471283    1.03607910370713   -1.58800233803936
H          -1.38943610496528    0.17817198143347   -2.01781548125657
H          -1.07934668977101    0.68833929508988   -0.26429153040051
H          -0.20543251243357    1.17689374153690   -1.79798181723142
