    19
        -40.92343664
S           0.81103935892306   -0.99107808715869    1.09763199419405
O           1.95171622167028   -0.46478067061881    0.37872564646600
O          -0.13528826610192    0.04551406990628    1.47860893271680
O           0.15827741520477   -2.07737202129021    0.36555679007648
O           1.34143591735180   -1.62003521206739    2.44106103722016
H           1.93825923877946   -2.29562575452833    2.13460653598231
O          -0.99101982089963   -1.03539213047800   -1.57407269689970
H          -1.67731572893396   -0.46742480442218   -1.06175526621492
H          -0.55297912119200   -1.61561787810303   -0.82244528528373
O          -2.32169549657915    0.45362590220954    0.00423247428587
H          -1.71573022439833    0.23527296790545    0.74268144981980
H          -2.15305841733758    1.38182856800855   -0.19180127658246
O          -0.02390269489538    2.27526841083764    0.04186788891558
H           0.01033450046449    1.52575867434166    0.67653172843887
H           0.57077568085733    2.94385861005314    0.38450628258621
O           0.91432655308070    0.55507606637777   -1.79546183804829
H           0.57704414925083    1.36654638403010   -1.36138509084786
H           1.49659192576877    0.14831517810607   -1.11028249670232
H          -0.19881120097933   -0.36373827316844   -1.82880682014177
