    19
        -40.91647006
S          -0.87977249265664    0.04015319050905   -0.83203413923233
O          -1.58834055034483   -0.06898137722971    0.42311346769822
O          -0.57872160894605   -1.16996478872922   -1.51602895107914
O          -1.70143858943150    0.96528984244643   -1.76605671078089
O           0.41490612045169    0.82989183763061   -0.56805077960547
H           1.21036185043732    0.27572668192412   -0.97121477602495
O           2.39918075178501   -1.88413469208770    0.90813630429099
H           3.18329008164509   -1.85754966891639    1.45887274179393
H           1.69479683682560   -1.41012059931506    1.40099930046866
O           0.56391757520402   -0.28343271773759    2.06795370419032
H          -0.29934032435706   -0.35598181965629    1.62823299855934
H           0.88246272713952    0.59763198849924    1.85357823329563
O           2.10253713386230   -0.76313996744369   -1.47073739824666
H           2.35020630903648   -1.24006107518352   -0.63969882780811
H           1.40220419210327   -1.29860935907171   -1.87059194428488
O          -2.80367840575020    2.27344382178370    0.20133351424598
H          -2.45948092425894    1.47080943912715    0.63526037585966
H          -2.13133552353724    1.65014046330199   -1.19386049712270
H          -3.76175516921888    2.22888878008796    0.25079340379057
