    19
        -40.91647035
S          -1.18729789273871   -0.11777274354449   -0.22637199547409
O          -1.12174504280038   -1.18601105745562   -1.16303517299512
O          -0.86425916108974    1.20564950634177   -0.70954672206086
O          -2.60731085285210   -0.06707405423247    0.39379278347908
O          -0.26647748811550   -0.41301661500982    0.97150014198448
H           0.18530360134000   -1.34511778034902    0.80049495068751
O           2.77712935747457   -1.26463941365706   -0.89966849966171
H           3.69651907244849   -1.28674931990241   -0.62911563020505
H           2.46990755797542   -0.34091210481612   -0.77248316923063
O           0.76169508791905   -2.55622521898384    0.22912455783677
H           1.59078641194831   -2.21365081118148   -0.18860109097529
H           0.12366782538678   -2.62728625795928   -0.49528261554549
O           1.80859548523250    1.16001084506740   -0.22446647687895
H           0.91634003761714    1.29629789079010   -0.58384795950020
H           1.68863709280715    1.08688824844259    0.72628120487078
O          -2.44292476842422    2.46224804234595    1.00569256405436
H          -2.71118974032275    0.82557523508564    0.81022349974536
H          -1.72305858894819    2.34432953193290    0.35847542521678
H          -3.09431798486381    3.03745607704572    0.59683420466067
