    19
        -40.91504910
S          -0.35066086860616   -1.22004393160573    1.23854398437641
O          -1.22399516341792    0.01517680579141    1.04197541175083
O          -1.01410661875180   -2.36311604515413    0.70163154999687
O           0.98676608834326   -0.94204388012310    0.81682230364260
O          -0.30089181339800   -1.39322387943780    2.80823058064304
H          -1.05868405438249   -1.91031335302135    3.07455748421582
O          -1.41373111145365   -1.09953919634886   -1.68569952887615
H          -1.36736979334172   -1.75295388934125   -0.97269154258116
H          -1.98192920985086   -0.39365219711051   -1.36868240495948
O           1.15086772675974   -0.19944680070147   -1.85488265618004
H           1.35519615692805   -0.56726859110575   -0.98337442895412
H           0.27012080513302   -0.55689885295294   -2.07201347783791
O           0.75979442849512    2.34906436926406   -1.31953152215441
H           0.90307371596552    1.41770499686574   -1.63430008909626
H           1.49576734285862    2.86373358036000   -1.65382332772635
O           0.54042650933191    1.73547738323807    1.20135911030898
H           0.59255582831554    2.10765199202246    0.27291253388559
H          -0.57040076048307    0.85334513411577    1.13902169909734
H           1.22720077155123    1.05634634525072    1.24994433043602
