    19
        -40.91833708
S           0.19898080507724   -0.83312807080810   -0.51781639934094
O           0.45941382416409   -0.94549606179949    0.89130693183647
O          -0.73288577881505   -1.76117583858808   -1.07361064557071
O          -0.32157059784304    0.62506789140021   -0.77139358539674
O           1.50515526318864   -0.85203821834707   -1.30774710684605
H           2.23655464222205   -0.51099568862370   -0.66637861388791
O           2.96220797111845    0.07650295411102    0.52276059378136
H           2.34505230060800   -0.29109024956304    1.17179277446664
H           2.72335624892742    1.02285677663797    0.42491766150325
O           1.74670646652256    2.37066431101465   -0.15316120929211
H           2.03006355588212    2.90550347321889   -0.89709453002128
H           0.94277247408889    1.90302778526168   -0.43096311494171
O          -3.14788888735186   -1.55808413206145    0.07401573985323
H          -3.80936524006028   -1.52614937315655   -0.62003721040679
H          -2.30984214912436   -1.81744375349308   -0.35585494918489
O          -1.93194751581154    0.53120375843347    1.15860449868774
H          -1.29833436573728    0.08519017791708    1.73345023065553
H          -1.04000688884560    0.74728977548672   -0.04539144054629
H          -2.55842212818649   -0.17170552722449    0.86260039475891
