    19
        -40.91820981
S          -0.78707387435245   -1.26610387113589   -1.31200512940703
O          -1.45427405412178   -1.42238190207886   -0.00828263971874
O          -0.85938428395676    0.11763220018077   -1.75747956803778
O           0.54962739119113   -1.80160793492576   -1.31988885660106
O          -1.64904453831518   -2.11480613166139   -2.32430842357750
H          -2.51103520603702   -1.71800764661822   -2.24322406226796
O           0.76081254694761    1.72260148155251   -0.58810177195729
H           0.12077247793153    1.11651677278399   -1.06349860959915
H           0.95720861046788    2.42355707447574   -1.21184584546411
O           1.95928131593828   -0.51747962564620    0.45340152789760
H           1.62750571209553   -1.12696970450491   -0.24937938001100
H           1.84178393164367    0.37233416044335    0.07795475210561
O          -0.39659390455361    1.89485983988541    1.82032292929315
H           0.17440436029354    2.40962688906243    2.39377878902887
H          -0.03886808199703    1.97541553740104    0.90831547739517
O          -0.08625381336594   -0.66473163311692    1.89260881675494
H          -0.32818796861573    0.31438583564999    1.98814415208452
H          -0.73561883315304   -1.05111185225165    1.13039785997766
H           0.85493824193926   -0.66372948950657    1.41309000208627
