    19
        -40.91791110
S          -0.02913655717638   -0.04627402728126    1.09712913146159
O           0.96352222392986   -0.81892956113706    0.39620715810603
O           0.46052218210963    0.96204071132958    1.98059717722277
O          -0.92782365308202    0.62862904444434    0.00235769811212
O          -1.01249411239526   -0.96169696326931    1.81557029635293
H          -1.02332236712130   -1.85091743717737    1.29763672800924
O          -1.89824887981834   -1.40476651951933   -1.62465171283631
H          -1.61549571427754   -1.17627056687405   -2.51223363759157
H          -1.80043633612041   -0.60653344946892   -1.08403551466941
O           1.87793940091106    2.80512659590045    0.63253028288501
H           1.57142133120525    3.67674790285199    0.89018224680199
H           1.47918079982595    2.17558950928848    1.26378872182580
O          -0.73496070500344   -2.93524641844172    0.27146265434282
H           0.16828944086811   -2.62410972133109    0.11190118710732
H          -1.26326743851942   -2.63625284583103   -0.49549177515491
O           1.05546932308138    1.31005353034844   -1.39543564378597
H           1.51588522489991    0.49216738678055   -1.16561891679778
H          -0.24504166593891    1.00878661144033   -0.66168633867138
H           1.45799752263482    2.00185621798482   -0.82020975268317
