    19
        -40.91893378
S          -0.42793581048252   -0.15352289149555   -0.96784020718985
O          -0.14153142816999   -1.56464730078199   -0.96930495383929
O          -1.62334289017341    0.27736490427533   -0.32644037577176
O           0.79548955704801    0.54941760715134   -0.34106007099639
O          -0.42591373302468    0.36711024517206   -2.42809025818251
H           0.37380731396609   -0.03706458902366   -2.84676555019206
O           0.23300054472721   -1.51854974417214    1.73818871469839
H           0.03873606702810   -1.74783292338726    0.81684058383486
H           1.14376910499357   -1.21732658392437    1.76002819184116
O          -1.55535756275404    0.42933484973823    2.42104808149928
H          -2.04823001954755    0.31614360845071    1.59667514526125
H          -0.96619761843894   -0.34618244690955    2.45683390817816
O           1.74493019807820   -1.02519433758291   -2.79643724093452
H           1.25829154793776   -1.60874961569785   -2.19066222849357
H           2.45627018897530   -0.62743930108725   -2.28761916341263
O          -0.05745272921421    2.22920302459798    1.30422845389274
H          -0.60296271297590    1.61148514606187    1.88260409325724
H           0.50026773274301    1.29026544945515    0.33850745784150
H          -0.69563773073240    2.77618491924020    0.83926542870175
