    19
        -40.90727455
S           0.82309546484496   -0.76865269731401   -0.92762462962318
O           1.14325603384005    0.69138191922639   -0.59573686167750
O           1.70408515347569   -1.62032591767295   -0.19002119987906
O          -0.57981956713206   -1.00944532538677   -0.78625728590937
O           1.17760610995770   -0.90474880454973   -2.44524411361591
H           2.11707380759784   -0.78243546029691   -2.56840516286377
O          -1.04414761572845    1.04658527271513   -2.68539885666525
H          -1.31889841568235    1.69954571830180   -2.03651683348793
H          -1.06331275651761    0.18758777321325   -2.25297761661605
O          -0.32846164681563    0.89636279399736    2.70788310001932
H          -0.18624368038828   -0.06492264421590    2.56680389156371
H           0.49174601999051    1.24201903480097    3.06331210419316
O           0.10483321018219   -1.65903533175270    1.98610955825618
H           0.83222986072011   -1.74888366030661    1.34865127753186
H          -0.66426324149295   -2.03591666217134    1.55204214640214
O          -1.06532128240391    1.51286623725205    0.26782055168966
H          -1.53872246422875    0.69881323558986    0.05270872214602
H          -0.87411545972498    1.45311311764991    1.23996333530283
H           0.26938046938236    1.16609142103247   -0.29711210666034
