    19
        -40.92052669
S          -0.00203556868168    0.76534112421830   -0.34920872458267
O           1.02672725363216   -0.21303024584895   -0.60035751952994
O          -1.02735016182367    0.31042986857994    0.55654246473063
O           0.64527640626310    2.05354531830201    0.16704498710742
O          -0.65351350591021    1.21594110992345   -1.65983853200373
H          -1.46756371145626    0.60699321586294   -1.81043062144936
O          -0.38003915063515   -2.17677758153810   -1.78361358647358
H           0.07196102526451   -2.41523155952053   -2.59564659249169
H           0.22137880528221   -1.58135201847702   -1.29771704148761
O           0.38605135835266   -0.07758560523460    2.81218186201450
H          -0.21688565803380   -0.05621182917825    2.04516580427007
H          -0.06785161238275    0.37381129930383    3.52678492788488
O          -2.47460819256690   -0.53237753217818   -1.69420319527724
H          -2.63145840008843   -0.48493947619249   -0.74381183244148
H          -1.86443633416240   -1.29456722190884   -1.82076051901485
O           2.47375346487888    0.94224924399858    1.50733478712324
H           1.46154285730291    1.77201919575454    0.72426479089680
H           1.86690707129386    0.53607549137542    2.16749611434098
H           2.63214405346944    0.25566719275119    0.84877243639251
