    19
        -40.91930848
S          -0.76945266318851    0.08747015254819   -0.41191282714135
O          -1.35339163895563    0.53285988748809    0.82986259124277
O           0.57587052696714    0.80478989109862   -0.58317999745488
O          -0.59975584408377   -1.31777249838420   -0.57994243051175
O          -1.63811800153544    0.62362805021663   -1.57917515869494
H          -1.98931003521212    1.50609449191222   -1.29374019655028
O          -2.48745566137463    2.67898128604929   -0.23243157645373
H          -3.43428684418328    2.73161875532083   -0.07935751462265
H          -2.11797033455257    2.11105102109729    0.46838626355944
O           0.94812507274143   -0.15905188806403    2.14225381322232
H           1.49101287267627    0.59099560169121    1.88887685468389
H           0.04229598098323    0.06151547736255    1.88020761884937
O           1.59522868295616   -2.38551334211749    0.69775627971174
H           1.52071804695620   -1.73153183167782    1.41686418617550
H           0.69612342591754   -2.46255175907003    0.34959225940472
O           2.23224843949443   -0.91208320012210   -1.34595963981576
H           1.30731415247694    0.14941959439634   -0.93976765904345
H           2.16286469413828   -1.52738524843393   -0.55443914387443
H           1.81793913774893   -1.38253444131295   -2.07389372264748
