    19
        -40.91339520
S          -0.22064817143003    0.35756264065045   -1.71212936342532
O          -1.02310211166415   -0.66132875646541   -2.30297394719285
O          -0.96027847910348    0.97692256126343   -0.52880883266663
O           1.11668084288545    0.02743415836821   -1.31914178356767
O          -0.11032924491501    1.54695625014174   -2.74492075980310
H          -0.91127271687474    1.56904076259466   -3.26540301033241
O           0.84854575399817    0.16958437737753    2.68807564762333
H          -0.00495427130232   -0.26297733744673    2.43930667901304
H           1.49480554642703   -0.53500125417073    2.75948798722256
O          -1.28687828965232   -0.97348908033629    1.60782433951438
H          -0.86964124104867   -1.62377724129071    1.00788165167411
H          -1.66854539238510   -0.29894877010372    1.03796831134759
O           0.02281441951105   -2.31090703462529   -0.35862297889049
H          -0.57745829383999   -2.24920542477001   -1.11099583814318
H           0.76213658175005   -1.73541434237054   -0.59038265711891
O           0.99259460564553    1.84406080474456    0.69432675961613
H           0.99364009063244    1.31261663967642    1.54316391130236
H           1.59736488467111    1.39056172247295    0.08955883139822
H          -0.19547453321900    1.45630932431310    0.06578507243412
