    19
        -40.91483109
S           0.94956278834899    1.09793562652128    0.30032669480485
O           1.17240277061864   -0.16421487226210    0.95638591943235
O           1.84815754227611    1.22206080460515   -0.92201912015582
O          -0.39993561084120    1.41757932122777   -0.02205044830276
O           1.50990561785420    2.21693914115549    1.24460353553162
H           2.37300779967298    1.94011771470627    1.54643243901524
O          -0.13107312526232   -1.51073575495789   -1.11526871264162
H           0.47834744766922   -1.32750718649625   -0.39017905525652
H          -1.03360055984572   -1.34449479138126   -0.74441519269072
O          -2.28264813199868   -0.63218594148364    0.16589282634900
H          -1.94956857250439    0.27340808216862    0.11637418636108
H          -2.05336604750531   -0.93097471625662    1.06366440048746
O          -0.85795244162085   -1.29357742979583    2.42060772424414
H          -0.08304451841487   -0.88078978281080    2.00553477202748
H          -0.62536450871443   -2.20958622302797    2.58482556811868
O           0.26153061939366    0.50481065419206   -2.68271168509102
H          -0.51727837622508    1.04294077856279   -2.50762384964439
H           1.26018279190644    0.96399857126413   -1.76679484991505
H           0.08073452517085   -0.38572398593052   -2.25358513261839
