    19
        -40.91416462
S           1.36576992353129   -1.01823840233018    0.00060701937292
O           1.67672593136449   -0.96251995639183    1.39062488886211
O           0.15990828699408   -1.91918286807990   -0.23113497768135
O           1.20177294358708    0.21384762567815   -0.71128588984656
O           2.54281686544018   -1.79323614556126   -0.71347328105449
H           2.89460153932109   -2.42494567321681   -0.08923376262378
O          -2.46342341176623    0.45844114767778   -0.07352715128811
H          -1.79659005199956    0.49215526816556    0.65433203056612
H          -3.21195411968201   -0.02635140756184    0.27765086489895
O           0.68519662494164    2.59230878548062    0.56598437152764
H           0.08618721959557    3.06484291034677   -0.01588927648294
H           1.03921009184993    1.84814318189686    0.05298415393266
O          -0.59416923039685    0.54022160067749    1.81664825504080
H          -0.17965433931616    1.40365723469571    1.62579248400665
H           0.14236269889903   -0.07786859427591    1.90369805491952
O          -1.06897059419408   -0.65723155307985   -1.97518759199640
H          -0.41211813236822   -1.50278093989555   -1.01632833405339
H          -1.71690941321558   -0.20767266477051   -1.36355950601992
H          -0.35076284244339   -0.02358954925545   -2.09870234199224
