    19
        -40.91990218
S           1.31232694967302   -0.72661771565083   -0.18150093297412
O           0.00799198034634   -1.26214237921954   -0.53875469714099
O           1.20036832278358    0.72876504943213    0.06878416028818
O           1.94633672256278   -1.41850327322273    0.90184643444633
O           2.22047208463301   -0.86305544188190   -1.46405174364796
H           1.65164115905891   -0.64906910323537   -2.20058505277766
O          -0.29939443849337   -1.49084623181309    2.27575102527869
H          -0.80163103496502   -2.09739218013428    1.72334123235951
H           0.62462710004916   -1.54766181884661    1.94007393483658
O          -2.04107357633755    0.35697663785380   -0.57977394135634
H          -1.45350645954142   -0.42621606310333   -0.69426580931006
H          -1.67438627642507    1.00140956699007   -1.21639277044250
O          -0.16914257083028    1.74423397566915   -1.94902259846946
H           0.43511336836787    1.43535591268967   -1.24041342221143
H           0.01340001300113    2.67684480533336   -2.07474585201063
O          -0.82484302848175    0.87889732784771    1.52532645355888
H          -0.72356064821804   -0.04058726292119    1.98085569184196
H           0.07635875911152    0.97088387575717    1.02701611046074
H          -1.50109842643976    0.72872431857805    0.69651177691682
