    19
        -40.92453847
S           0.37567859324165   -1.30754393209567   -0.68698704299897
O          -0.40754204259459   -1.64065347094286    0.49784566826420
O          -0.42244198863045   -0.53944048092178   -1.63566754209777
O           1.62746721695371   -0.65765818442658   -0.36038583154315
O           0.75010255546972   -2.67080589675165   -1.39144098519626
H          -0.08568476469088   -3.07653088475579   -1.60272728769014
O          -0.40041139700308    1.89053835482274    0.99434545016615
H          -1.24547401364562    1.31222690216730    0.78232552434857
H           0.07972256565883    1.99012266486099    0.06925842071421
O          -2.18273444751418    0.23960914717641    0.32816488035554
H          -1.63638345745378   -0.57038905357823    0.49513868737318
H          -2.23259482870657    0.28441699025698   -0.63393710993294
O           0.72214123826167    1.76445858792789   -1.25884426162962
H           1.62082691969757    1.44970806571548   -1.10673021922963
H           0.24566382884381    0.95877834056668   -1.58083857049509
O           1.04643080772017    0.11662602389353    2.05011912755760
H           1.47239469133774   -0.18556004099338    1.21078939484401
H           0.21587784475312    1.25394722194344    1.55100569969471
H           0.45696068836198   -0.61185034496710    2.27856598744617
