    19
        -40.90933644
S          -1.02941275444408   -0.01312914399936    1.78353219911525
O          -0.03479021469319    0.90925646971336    1.31663722622019
O          -1.37640370447004   -0.00839952920037    3.15735814771716
O          -2.25610298424122    0.05169789340738    0.88956260527371
O          -0.45125566537401   -1.47299656049168    1.46482629357828
H          -0.91194257566109   -2.05201645579933    2.06753878332858
O           1.03353147166327   -1.93727593733538   -0.94223024666146
H           0.47968951585631   -1.99131301526694   -0.15657423720855
H           1.75609525033739   -1.33967563009824   -0.70491630603608
O           0.31339190316917    0.28782273804556   -2.31435869569027
H           0.36428641122365   -0.65699103757405   -2.07368366446794
H           1.11130495492157    0.66613477312571   -1.92091311976250
O           2.16239631050696    0.55162247868641   -0.20035270104412
H           1.39139811106769    0.68927208890562    0.38286261410169
H           2.90359207948064    0.98287473002111    0.22704492673650
O          -1.53802686104123    1.52622666031651   -0.97260994509896
H          -2.02214463988641    0.64649043119243    0.05061910773264
H          -0.98286910965980    2.13473442160843   -0.47506824323665
H          -0.91273751883967    1.02566463474104   -1.57927474459790
