    19
        -40.91958853
S           0.78507657379101    0.21373475343745   -0.92697866959430
O           0.87957392861740    1.43518434090589   -1.65074881938848
O           1.62482278666006   -0.88185338746689   -1.29846166853344
O           1.00155972979674    0.48124111070414    0.58641108865947
O          -0.70326976516747   -0.25005145938206   -0.98432370214138
H          -0.78871745721425   -1.15195171668396   -0.50617694170973
O          -0.79444434039501   -2.46965815741241    0.23703185499319
H           0.11568874660005   -2.49634255936578    0.64188489075971
H          -0.82432640138507   -3.19308440963581   -0.39383106631397
O           1.71086712040188   -2.26923445961237    0.96557677172739
H           1.90212165103387   -1.86551708555296    0.09572400242705
H           1.84147521240090   -1.56610751801535    1.60700410609167
O          -2.31212628011072    1.75820728592146    0.05272302454737
H          -2.87986738699951    1.31341941072597    0.68493276367103
H          -1.90226223766066    1.06863530455120   -0.49182031705504
O           0.10422665423822    2.83586213250261    0.54330908565762
H           0.41551981437029    2.92264982365051   -0.36940040223789
H          -0.85926778193735    2.67086871646595    0.47422818085119
H           0.68334945299299    1.44399788434544    0.73291580760949
