    19
        -40.92246906
S           0.80945289798348    0.42986566705328   -0.55151413945626
O           1.39132630867966    0.94443761895356    0.66627264370662
O           1.39782555202286    1.18710644442168   -1.76195206267489
O           0.96853717546424   -0.97846148544270   -0.75412428396085
O          -0.66597071167868    0.81783317145342   -0.60031241966169
H          -1.29917094659687    0.14645029730611   -0.00146742196005
O          -1.06690700495079   -2.73366673224388   -0.81110229492173
H          -0.22815749024543   -2.23573841211714   -0.84839765141251
H          -1.33737581376120   -2.87926217719475   -1.71919416919900
O          -1.92834704313649   -0.79136059927463    0.77325902800013
H          -1.84104216026784   -1.60909463039120    0.22784032291988
H          -1.26686737430311   -0.90012001322698    1.49912729656765
O           0.30362251834216   -1.00696931007723    2.18238444816988
H           0.76206981511658   -1.78959958304880    1.86626269029451
H           0.79831438142768   -0.24726807845740    1.83003388824695
O           0.85580467876505    3.34714818649931   -0.41920630242851
H           1.30413948657505    2.14115078315268   -1.51504133254843
H          -0.10359651414151    3.38446441618599   -0.37102236271952
H           1.14634225469422    2.77308440643941    0.30815412303134
