    19
        -40.91329953
S          -0.05653190082222   -1.69375114680046   -0.16848053673669
O          -0.31765504557928   -1.85069721873374   -1.65861324566722
O           1.22613853977288   -1.07703621555017    0.02865005564153
O          -1.15223009309837   -1.08928973493943    0.51941515725198
O           0.02459466423088   -3.18324968154356    0.31730014515166
H           0.80366186146870   -3.58653637033334   -0.06226351700878
O           0.49139400668026    0.26810522641385    2.28807843780102
H           1.09553669568718   -0.13071480997072    1.64567492409678
H          -0.35974787526842   -0.14495945952043    2.09616686924304
O          -1.27325682646732    1.37410750244015   -0.78798269305447
H          -1.50286981918060    0.57797568495229   -0.28917120708935
H          -0.79622780595197    1.96098855183850   -0.15969298888535
O           0.14022166502853    2.65555769019665    1.09992472576757
H           0.35657473421881    1.85705823891184    1.63078815449806
H          -0.26200680317600    3.28345374917983    1.70187077117152
O           0.49519736731413    0.37259132367697   -2.37171364471307
H           0.01166287320591   -0.94112262491036   -2.10593754859309
H          -0.21491382262909    0.90284596968974   -1.89143796673621
H           1.29045757449995    0.44467332490692   -1.83257588216444
