    19
        -40.91793140
S          -0.70067395810898   -1.23215386227724    1.04008083433913
O           0.12549468559020   -2.41191565917132    1.15512892625415
O          -0.05011374338558   -0.01872133155202    1.48942071311993
O          -1.24128998957737   -1.07178746634383   -0.31964593029785
O          -1.95732130412710   -1.43965780113952    1.97696209593485
H          -2.26662580372652   -2.31736776774703    1.76983776668288
O           0.36419379959008    2.04194572719498   -1.80545941511922
H          -0.08893760683663    2.19002706941950   -0.93046661881193
H          -0.26244778509992    2.31430827575435   -2.47885304918638
O           2.15396158767200   -1.06662687515219    0.18594896593067
H           2.02264983149690   -0.33547114036438    0.80107400211025
H           1.58508606262435   -1.78089459047266    0.55276060366520
O          -0.86252318687948    2.25520013638992    0.49352330386849
H          -0.65363240196186    1.37761330036340    0.89366348249807
H          -0.58279319859950    2.90855833426401    1.13748554141613
O           0.65131226314388   -0.48046469854029   -1.77512689520887
H           0.59499970858432    0.55070803964819   -1.84467752813541
H           1.39843158093094   -0.70958653446829   -1.10268584668723
H          -0.22977054134860   -0.77371314579501   -1.23897098240720
