    19
        -40.92019828
S          -0.99797422275764    0.39041617101861    0.22663152530596
O           0.11551877256576    1.26362868639128   -0.06253227736342
O          -2.11331029447901    0.51508660602351   -0.65539305091230
O          -0.45232465463507   -1.06603349075516    0.20542497983610
O          -1.46437831286591    0.55791266180034    1.66654849012375
H          -0.70175211957280    0.34560610502976    2.31331088065275
O          -1.44927984212171   -0.34768185391650   -3.11201717617636
H          -1.81044420262855    0.07111197010187   -2.30687982333459
H          -2.08837958651358   -1.01030847332647   -3.38084876117044
O           0.53181700053938    0.11111894553984    3.17829625161257
H           1.27603819250232    0.07534286720256    2.52525969509978
H           0.69452926561953    0.87567480005701    3.73609545989096
O           2.22932451448436    0.24111974824580    1.16899723822275
H           2.41361975603222   -0.55335003347142    0.66287490199348
H           1.56473680881743    0.74892415004550    0.65922376739921
O           0.89760741620694   -0.68449440250822   -1.91997773530852
H           1.07563141482784    0.24271928146922   -1.72089472896579
H           0.12646850057415   -1.11007242378456   -0.62168908897574
H           0.15255159340000   -0.66672133518090   -2.56243054795355
