    19
        -40.91092482
S           1.09971648116737   -0.57270995473245    1.61795833919813
O           1.54857858467696   -1.77310905955110    0.96834846608002
O           1.94807517656367    0.61406301368419    1.21112723305322
O          -0.29593195335304   -0.28357191551748    1.49353287245083
O           1.43011628411542   -0.70728398425121    3.15079255812360
H           2.32539766832348   -1.03546742328816    3.19852079473753
O          -1.39618494736476    1.71064729357790    0.02376976933774
H          -1.93794691664152    1.18146171867637   -0.57756357792153
H          -1.16670914187087    1.10659804574654    0.75060992490151
O           0.29980623089774   -1.11736768041804   -1.32020603132548
H          -0.61467411240711   -1.08768286125419   -1.01356165500594
H           0.80582404404657   -1.54505938473557   -0.60742727490848
O          -2.41957043237451   -0.23950401992947   -1.76864139786521
H          -3.25847759153755   -0.68094050518645   -1.91406768183511
H          -1.94673836172805   -0.22665896604156   -2.60520920268181
O           1.01954921193135    1.39306531438501   -0.92091087662683
H           0.12348878737000    1.72609731434884   -0.62832790251024
H           1.59460639060817    1.03963649506419    0.24444228445776
H           0.84107457745537    0.49778655955209   -1.30318665165143
