    19
        -40.92246912
S          -0.33845145495654    0.15150216415811    1.00428618445097
O          -0.18697394338982   -1.25693897268830    1.28663436572616
O          -1.26842352142094    0.78973658979897    2.05909017898357
O           0.88355897957554    0.89471157339471    0.94152653854515
O          -1.13602566242469    0.31619381486535   -0.28685177690083
H          -0.51423842185670    0.18892045958401   -1.18495904507453
O           1.81399539824069    2.07771661857380   -1.28640282648817
H           1.60846023340226    1.73936303203118   -0.39418882671486
H           1.53555499165895    2.99487753617123   -1.30051636840326
O           1.76484637976616   -1.56767368479949   -0.55235072920470
H           2.47967666349194   -1.04480642581114   -0.18070285052859
H           1.11154647477089   -1.67151435868130    0.16066777045012
O           0.40817312901351    0.01756609501763   -2.18348404114401
H           0.96004384637985   -0.70622567559243   -1.79914623817758
H           0.96274177643937    0.82945126471389   -2.09983767872260
O          -2.86308365664687   -1.20378361716446    1.56467147904825
H          -2.00955456193462   -1.66386233211708    1.51203636521779
H          -2.05358129618795    0.18715220483028    2.08032427955743
H          -3.15826534392072   -1.07238629628767    0.65920321938336
