    19
        -40.91893370
S          -0.83173676010295    0.33964432815293    0.57791113402462
O          -0.24140449579242   -0.06686581925068    1.82684297950144
O          -0.46393266691427    1.61213739608024    0.05678735859615
O          -0.51217053421839   -0.76850162082015   -0.44838457654619
O          -2.37572850248377    0.27433092119193    0.70073570275732
H          -2.56463649706404   -0.58460335244812    1.15308465164654
O          -2.06995567692531   -2.02585942275062    1.88469596531627
H          -1.29189587767990   -1.54781734401167    2.21700235773371
H          -1.75000732038578   -2.66575122901340    1.24359422493414
O           2.21671748380371   -0.23252270322283    0.64342833953446
H           1.46545363766419   -0.12791362368599    1.24662532087877
H           2.14422674541629   -1.11092832616661    0.26429215536593
O           1.97693238478173    1.76243160993094   -1.20615054708753
H           1.25623393517102    2.17988722499197   -0.71452440008070
H           2.34869316494765    1.11309137825131   -0.58166490236645
O           0.26895275955641    0.34407932549253   -2.54818959598980
H          -0.20698500985860   -0.36144311703940   -1.36415005650289
H          -0.40033511708591    0.98969152135502   -2.78864423466493
H           1.03157834716546    0.87691286304139   -2.16329188686786
