    19
        -40.91188305
S           0.72059615636210   -0.43404594888921    1.52855288500702
O          -0.42793900891237   -1.21652361110426    0.88571385486759
O           1.94925846072081   -1.12969860178572    1.32610520191531
O           0.66135763314139    0.94237501994704    1.14374734287825
O           0.34477505987326   -0.49507730575923    3.05421482868116
H           0.66311928888216   -1.32368591706314    3.40783418381223
O          -1.37238817278396    1.50744864920864   -2.14274992211669
H          -1.46195505512940    2.42980805697043   -2.38719998385514
H          -1.71927454627982    1.42807836945142   -1.22801769457736
O           1.07024806215372    0.54731190490268   -1.59366478091806
H           1.12990837628559    0.89598549341161   -0.69413913490041
H           0.21661921886073    0.88348633510393   -1.95098491636095
O          -1.96513977275012    1.20004638192577    0.47364448517360
H          -2.18162698980826    0.27410423490895    0.61197787634156
H          -1.05887020637619    1.30689878185459    0.80659778992977
O           0.82537392061693   -1.96704365073345   -1.09563679808956
H           0.94614702156746   -1.04218384922560   -1.48054524715704
H           1.65965211315658   -2.16995414764522   -0.65582641550705
H           0.00013846039552   -1.63733018535849   -0.00962353512255
