    19
        -40.91527172
S          -0.94756992386505    1.37117302917742   -0.30445730481830
O          -1.23178426031019    2.19356717537072    0.82347303262521
O          -1.39676984173857    1.71507580157812   -1.60731089127897
O           0.60816355376710    1.18234873966141   -0.34872483439880
O          -1.44842641274906   -0.08121715751184   -0.00364916265177
H          -1.37154673579387   -0.18628822956092    1.00071823077849
O          -0.91185041899280    0.03223578171258    2.47201629076268
H           0.01508606725123   -0.25245807192876    2.41868664609971
H          -0.94098865616385    0.99616218321806    2.37157048175956
O           0.27301677478645   -2.07650401005782   -0.90388867795038
H          -0.61806638497580   -1.80990964173228   -0.64780818247831
H           0.82264265073104   -1.91388071830571   -0.12449515788994
O           1.53093696160689   -0.71214031284217    1.34484048278638
H           1.36340797475013    0.04976974360641    0.76017169304771
H           2.46536657404736   -0.70260645498294    1.55993867014509
O           0.66409033428342   -0.00125170238308   -2.54532410808496
H          -0.20132445335374    0.32888554741631   -2.81770341250889
H           0.78020494465839    0.77089018842980   -1.28374784371800
H           0.54541124210987   -0.90385190086394   -2.16430595219268
