    19
        -40.91836654
S          -0.78254275563282    0.45006941413921    1.75321819776591
O          -0.01980574463300   -0.77692745961057    1.74729742194416
O           0.03458336789767    1.63926548332282    1.59638269768422
O          -1.87744304565731    0.42938619093428    0.77039726683978
O          -1.47717826914335    0.55250142671754    3.16579725443503
H          -1.85361371969652    1.42707423774961    3.14606388314911
O           1.16524920863836    1.42693297795818   -0.73013554575204
H           0.84969590591331    1.67835408169274    0.17469655770501
H           1.64069044442117    0.58865960441155   -0.60633993580464
O           1.66166472800321   -1.22407623348845   -0.14477228907892
H           2.33540867274524   -1.81321585222555    0.19884086598691
H           1.02348581525916   -1.08265519639691    0.60932346693512
O          -0.10386546736374   -1.71080676529754   -2.09943531408275
H           0.36956293920336   -1.78640861871962   -2.93005029796324
H           0.56947864659815   -1.68737865562341   -1.38356307322404
O          -1.06009156910895    0.61723586756365   -1.54348481857874
H          -1.51084541192805    0.54378080359280   -0.57252626737729
H          -0.12513653252476    1.05882251482552   -1.32491449271606
H          -0.83929720299427   -0.33061382153195   -1.82679555785243
