    19
        -40.92045269
S           0.26566559108727   -1.55112099094087    0.28466479671370
O           0.80052073537516   -1.01017521177006   -0.96200848073150
O           0.95186989117545   -1.01442020447036    1.44465254249368
O          -1.17748911231311   -1.39251124024159    0.35003453697965
O           0.55833194409752   -3.10703745649895    0.28328379289247
H           1.37898796803107   -3.17404381500164    0.76199972798176
O           1.79384494358367    1.35039798048138   -0.66226395027696
H           1.54072658377109    0.39034543343975   -0.72852909851643
H           2.24162793840345    1.57583220604498   -1.47988027191285
O          -0.85208347801070    0.75818743817411    1.98918647271886
H          -1.57096978913478    0.14406535661505    1.79025778163522
H          -0.04995309239612    0.17626213306421    1.95973490556893
O          -0.57387780066647    2.07194515510957   -0.12798266116234
H           0.42591598388676    1.93920894190986   -0.32602576407176
H          -0.71766808241075    1.63304990442261    0.82488089983160
O          -1.54209512149933    0.26516521058927   -1.59378383762479
H          -1.60822421128543   -0.42791666751030   -0.88709363769680
H          -1.06139487380046    1.42082718065084   -0.79138274291451
H          -0.80373601801467   -0.04806134409144   -2.12974499198686
