    19
        -40.91793104
S           0.90798337810452    0.81513873372009    1.26389345363327
O          -0.39905953939362    0.21011350297712    1.41808449094589
O           1.98641539438849    0.01389423918694    1.79533251315374
O           1.15031943949028    1.20313964053941   -0.13502370498112
O           0.87458641724261    2.16739818248472    2.08277499069409
H           1.78433231384035    2.45113037925879    2.11110564461162
O          -2.27664387720152    0.90558133497729   -0.25945073953772
H          -3.09268361382412    0.69975456031074    0.20047073340176
H          -1.55339873273434    0.74302885391083    0.39194798692860
O           0.94144675380982   -0.84066317151850   -1.48793841541784
H           1.09555897397827    0.09517130741174   -0.98851870131495
H          -0.02717022011289   -0.79732691490737   -1.85054167741274
O          -1.46246408179495   -0.57026024918150   -2.25818063022693
H          -1.83711094609815   -0.02240883221870   -1.51497832782088
H          -1.51809066251634   -0.02453086640463   -3.04519437333426
O           0.91427438847006   -2.11578022148314    0.70756034272599
H           0.95331712080709   -1.50835417438998   -0.70234310999279
H           1.51401711430356   -1.50920052357353    1.19773991970707
H           0.04437035924484   -1.91582575108809    1.07325961423667
