    19
        -40.91271016
S           0.32427336341551    0.11894144979822    0.43507017050801
O          -0.64863600599836   -0.43658620673113   -0.46980705332770
O          -0.11737120393511   -0.17652329589927    1.88365641660876
O           1.67744993858293   -0.29866983989146    0.23276482419793
O           0.26922005201914    1.65635182781200    0.35841795564487
H          -0.67951860567689    1.88901892212735    0.05172327965670
O           1.74897981093999   -2.94718091615807    0.69534475796112
H           1.85093185113751   -2.01955905711448    0.40879146174010
H           2.45261998974360   -3.11361546724202    1.32591960109887
O          -1.97838695594882    1.88581888768778   -0.77328072293585
H          -1.59912440462925    2.29098172294128   -1.57294169816808
H          -1.92025672177349    0.92559305194654   -0.90460927071915
O           0.03447615883781    2.86339118220241   -2.35463743872815
H           0.28778828423055    3.77651525232489   -2.50494132415292
H           0.63959464447287    2.50679996741642   -1.69606792055871
O          -0.80599106835475   -2.55791650865495    1.35554810928717
H          -0.45858350457977   -1.13488463544776    1.86519402843623
H          -1.16469940946042   -2.30356071533786    0.49695378979926
H           0.08723376698891   -2.92491565179190    1.16690101365449
