    19
        -40.91893398
S          -0.15096900782076   -0.05581876774237   -1.72960441856578
O           0.00093606326183   -1.44488647189745   -2.08184892212464
O          -1.34842567892763    0.17885473024956   -0.90820496424133
O           1.01857176591287    0.55893178269882   -1.13296741380036
O          -0.40911439995126    0.72680971372351   -3.08602690697926
H          -0.90409376900648    0.09894029465728   -3.60352139516089
O           1.02530779771583    2.12648925336687    0.92899173622749
H           1.00421431433564    3.03412671107221    0.62027467217490
H           1.14515333213370    1.56052713600169    0.12285382176572
O           1.16470246791473   -1.84721043161627    0.25122165565636
H           0.71491917145020   -1.89981600151962   -0.61677279041869
H           1.80263459261653   -1.13553070225107    0.14289622171167
O          -0.45785984107783   -1.36173079802954    2.25209075758618
H           0.21174865693796   -1.60073218294081    1.55572383902252
H          -1.15475256468402   -2.01770753649415    2.18777084025453
O          -1.15374950834313    0.92512429150475    1.42839193116086
H          -0.29542202113483    1.48379209030065    1.38169948719905
H          -1.31397981638371    0.64306931930957    0.40880453487199
H          -0.89982155495246    0.02676757960661    1.87822732365921
