    19
        -40.91329952
S           0.96585451881443    0.73990886503233    1.19258335604741
O           1.54453924810106    0.52313451788078   -0.10453529037766
O           0.37025969920794    2.13826714054032    1.25253005720902
O           0.05623012332081   -0.26317801296011    1.64588155465666
O           2.12257267361696    0.82200920971948    2.24905581779919
H           2.78922378431072    1.42617247980436    1.92618269388594
O           0.96085258748666   -2.14280834745434   -0.17732158308752
H           1.41378486472052   -1.32323503826527   -0.42212793917787
H           0.55923770955317   -1.94198347054385    0.67716752805710
O          -2.02394644129480    0.06980909352190   -0.18628591787272
H          -1.51375574581903   -0.14651500768883    0.60632016923527
H          -1.84277243659266   -0.64975428547597   -0.83148170862554
O          -1.19164194555448   -1.92612092702139   -1.77548768901295
H          -0.35651631266569   -2.10768022521395   -1.28985846220474
H          -1.66026941468848   -2.75986509509788   -1.83453388667815
O          -0.70036921419043    2.13465597849672   -0.97603873940906
H          -0.00444789472007    1.72142229943581   -1.49874038829274
H          -1.36539435899995    1.40514161953482   -0.77234332340958
H          -0.12344144454501    2.28061919582595    0.31903375124992
