    19
        -40.91373477
S           1.09215916329600    1.18480225893222   -0.42912493184557
O          -0.26320460364486    1.37743814469752   -0.87115930559431
O           1.33164422369909    1.88590058057419    0.89930750636424
O           1.55412431755435   -0.16350339227118   -0.38843115587179
O           2.02194670692979    1.98912361718096   -1.40613034487802
H           1.66312623080862    2.86935515166453   -1.50735789015297
O          -1.83281228043796   -2.25836039692259   -0.10207243478804
H          -2.70939100669904   -2.49563709158568   -0.40821774422632
H          -1.32632368325697   -1.97473615232837   -0.89479079103904
O          -0.40351783897473   -1.10535940106395   -2.07163445022699
H           0.47912539409668   -1.18300786819985   -1.68718307990529
H          -0.64701358811800   -0.18272744334535   -1.91611840347574
O          -1.42738829840989    0.01527324235364    1.26693203312545
H          -1.25488238263782    0.60180514416980    0.51832831458070
H          -1.63860228212511   -0.86388077372063    0.88014077232959
O           0.89437832461493   -0.02936739126372    2.40116186331141
H           1.20690675596366    1.14795433987264    1.65741429103471
H          -0.07599041211049   -0.08378243808525    2.14889680834545
H           1.33571527942033   -0.73129014069708    1.91003893289469
