    19
        -40.91833691
S          -0.63840468404112   -0.48821868944687    0.59848939048049
O          -0.62791169347582   -0.96939216655747   -0.75588519757199
O          -0.32526561228698   -1.43720711439042    1.61821410722422
O           0.38965550080734    0.69511206356122    0.67112159813897
O          -1.95892965427061    0.21185500128035    0.90879863340209
H          -2.32635390436195    0.54965341632986    0.00690589176462
O           2.12623501200651   -2.47781675168222    1.30408577338626
H           2.57952538674255   -2.43771059156210    2.14850244059332
H           1.18847009320328   -2.27230046964863    1.48488193902120
O          -0.55662538703997    2.73087398583427   -0.96199793104492
H          -0.72088287132295    3.55327073356156   -0.49658712435950
H          -0.10724782197107    2.13761328266285   -0.33882445611590
O          -2.47183077521430    0.91716190176191   -1.45243857266531
H          -1.95254991827365    0.16339807462712   -1.76783159209624
H          -1.87731236396418    1.69590837981763   -1.49920160510703
O           2.16461876721471   -0.59457523341505   -0.55958766559404
H           1.53444710711489   -0.96034796446658   -1.19198530275387
H           1.22371569372853    0.30948838148334    0.20949191215939
H           2.35664712540715   -1.32676623974512    0.07384774118008
