    19
        -40.91955068
S           0.39141712440018    0.08310869211737    1.09655630153795
O           0.38380488849518    1.31710989752027    0.34534062869198
O          -1.02926891301176   -0.51129093866792    1.07166664901609
O           1.35469540010100   -0.88247686082842    0.68360487404735
O           0.57224875625397    0.40422786463714    2.59371738945143
H          -0.10243697211633    1.10895905492188    2.76456257341487
O           1.09680642592803    1.06422840517833   -2.26453747611373
H           1.93442030079840    1.51909521841342   -2.36970777022050
H           0.79808881755582    1.24686900780577   -1.35597552971667
O           1.00961720923832   -1.61746494104599   -1.92316108566211
H           1.04948769485268   -0.71167395081268   -2.28990281453357
H           1.40527200417338   -1.54274928496530   -1.04026042808874
O          -1.31267856100266    2.15734025557702    2.25064907751428
H          -2.11448718492207    1.65741320828369    2.07381478429589
H          -0.85137431637834    2.24908703367059    1.40102192060859
O          -1.38384624142236   -1.87285144782546   -1.00132496981128
H          -0.49666298493662   -1.80338224163565   -1.47948639245563
H          -1.48938765475077   -2.79763507511627   -0.76567205768132
H          -1.21571579324511   -1.06791389723968    0.20909431573938
