    19
        -40.91793139
S           1.60884088906387   -0.39048226793103    0.59141719080920
O           1.73700768060320   -1.76545408315574    1.01633201946571
O           1.40186731969158   -0.28267005074861   -0.86190873525379
O           0.60064387507853    0.35307041871313    1.31858652633185
O           2.98838739955621    0.32619846083823    0.88029487731728
H           3.64447109894389   -0.27059501244373    0.53047370762903
O          -2.11893148056991    1.05246979137594   -1.40192340777689
H          -2.07225775574147    1.45403103257070   -2.27194410722173
H          -1.55177958106111    1.61550451098960   -0.80693702872072
O          -0.87439143654310   -1.97223469346659    1.07324711143167
H          -0.96926533951604   -1.16299021356389    1.58956976598484
H           0.08768733864367   -2.17004344316272    1.13205621170652
O          -0.49975917579776    2.40809198975672    0.13987979838582
H           0.00649178416501    1.67432761206283    0.56320126325067
H          -0.84023074483014    2.94002657555478    0.86164281621456
O          -0.85358485610602   -1.14702166274996   -1.32784163019166
H          -1.43662141410288   -0.29335270618912   -1.38303819909416
H           0.15401574123543   -0.79223594003205   -1.23897232416059
H          -1.01259133269264   -1.57664032826851   -0.40413586623273
