    19
        -40.92135370
S          -1.02201581900535    0.18021905718864   -1.16609220466825
O          -1.91879257827318   -0.45552162384956   -0.19976574406071
O          -0.84420301635848    1.58968485758818   -0.89461613055815
O           0.23361115823536   -0.54400762762469   -1.28488240987311
O          -1.72821935115680    0.05872898432158   -2.57213457515455
H          -2.49425680236930    0.61563314074029   -2.47333252350320
O           2.30244096928864    0.87994936265201   -0.31926122501919
H           2.52955797139815    1.58006470717421   -0.93359829424004
H           1.64493893071313    0.31939743057313   -0.77562876062318
O           0.42332211732009    1.59118435674010    1.39813488351288
H           1.29736086224396    1.37533307258331    0.99375817607914
H          -0.13575493876284    1.80816016609338    0.61497982080189
O           0.78283045774474   -2.23416109777129    0.67476854933938
H           0.68471840870040   -1.69334598536447   -0.14165306014917
H           0.39673038145829   -3.09090184198928    0.48326524602444
O          -0.66472595548502   -0.56241777411551    1.94867487628978
H          -1.32947291256259   -0.53234780032064    1.15072538010588
H          -0.00925034794794   -1.28143195517777    1.64923187314571
H          -0.14881952478393    0.39578058055977    1.84742614266634
