    19
        -40.91821042
S          -1.83241966374228   -0.75755589953910   -0.10666667522950
O          -1.82450145301424    0.69704316468424   -0.15158811330471
O          -1.00234788615447   -1.31042667478405   -1.19067520701069
O          -1.48816380112275   -1.29264423122625    1.18510756774565
O          -3.30492938201786   -1.21560521227695   -0.43866273137811
H          -3.43693972516702   -0.86410224599128   -1.31387151928795
O           0.30699445586914    1.80418657741560    0.74240586448699
H           0.05344597136196    2.66434226478931    1.08131040252995
H          -0.53832134731790    1.39774961279570    0.39151996665414
O           0.99104225908853   -0.67920077457329    1.69382458867491
H           0.06519859728882   -1.02240810676266    1.71243633163870
H           0.89060828599752    0.28654258177057    1.63254086039709
O           2.00960661423820    1.21765433007385   -1.23878505405180
H           2.88627275761080    1.50728057165756   -0.97923693045366
H           1.37828705494668    1.57920670831748   -0.57771237880469
O           1.41109796018667   -1.23544346064362   -0.71290822440510
H           0.37885702930296   -1.34122619298093   -0.98871273026102
H           1.69981795517357   -0.33379849646721   -1.07358717210974
H           1.35639431728356   -1.10159451549905    0.33326112406919
