    19
        -40.91908983
S           0.79852900870477    0.25222229474407   -0.86814673444048
O           0.62281959327215    0.80541019003509    0.50788893860216
O           0.86912021728890   -1.19462652242686   -0.79586307369887
O          -0.24220551779081    0.72971516821799   -1.74507516033468
O           2.15557340588690    0.80447897776618   -1.38308328925834
H           2.77708564832961    0.62021873563626   -0.64840847342672
O          -1.15596514422684   -2.22287749785755    0.39290941315920
H          -0.37700967748800   -1.91772335970127   -0.15720303961362
H          -0.81284155206854   -2.90196291160848    0.97756294715509
O           3.19822178051600    0.53171986421174    1.02598742475597
H           3.58125050761271    1.33563239388642    1.38485200415645
H           2.23133274053223    0.60752625059524    1.13712249620734
O          -2.67023180007970    0.98479748679005   -0.88104128153263
H          -3.18091226353859    0.35145380801353   -1.39072653821854
H          -1.77588329027385    1.02233129726059   -1.31134965383086
O          -1.62955981446796    0.10484898401090    1.24198189218104
H          -0.65423269562963    0.47834012214913    1.02978975002567
H          -2.19631763535425    0.50910400485230    0.47236570777920
H          -1.53877351120462   -0.90060928659752    1.01043667034514
