    19
        -40.92003353
S           0.30358395015577   -0.30296731787352    0.76570930495245
O           1.01680607948558    0.77429869798930    0.12742001972792
O          -0.16326491760532    0.11157625182284    2.16305539679296
O          -0.82636470660204   -0.76596206822154   -0.00457135139064
O           1.25120264157570   -1.46197045410705    1.08213958269360
H           1.63266434689198   -1.86528901118459    0.22444271494166
O           1.98650060727916   -2.39567031323478   -1.16679062691713
H           1.56987315258134   -3.24673077886814   -1.32293556600632
H           1.52937868515866   -1.74259424943698   -1.75900783782414
O          -0.84493911488560    2.70210772341627    0.13559020951589
H          -0.49093241582850    3.49284302035553    0.54767221738491
H          -0.09668907947856    2.08167357174071    0.04090889883641
O           0.51834098832587   -0.54776789387668   -2.32711095309961
H          -0.19664681073983   -0.64562650803822   -1.67422421345645
H           0.94953608415710    0.28193587476371   -2.09864082029573
O          -2.42009041908908    0.99431144135913    1.45317742387059
H          -2.54517776431070    0.30353134533363    0.79111881161007
H          -1.12040359554717    0.46729962807798    2.05772605778879
H          -2.05337770149953    1.76500105003978    0.96432073092798
