    19
        -40.91790593
S          -0.23618555113067   -0.97646787042339    0.20987731256047
O          -0.79764801479331   -0.76393807423830    1.51285721297357
O          -0.70330029016430   -0.06492290319510   -0.80317399519122
O           1.27943327580559   -0.96629104384248    0.28070317304602
O          -0.53534869162155   -2.43606196322153   -0.25444210660221
H          -1.51363402501687   -2.48859523729707   -0.28224149110489
O           0.73290995964870    1.46338701540162    1.89984165271686
H           0.09078409975629    0.73789562948692    1.94198853365216
H           1.57117041030574    1.09494642404632    2.18677902268761
O           0.62138806775191    2.32612024775512   -0.68615945412934
H           0.72313579035920    2.30304695845382    0.28331780017016
H          -0.11953773633104    1.72700760697430   -0.86305275516440
O          -2.98795441984011   -1.52266764352493   -0.03761607286034
H          -2.82423468242309   -1.23525136975412    0.86798932591898
H          -2.77574936903155   -0.76867507707614   -0.59894317483808
O           2.20721069843198    0.46980457493631   -1.53497466730421
H           1.73183555575904    1.31515753912619   -1.26072041277328
H           1.73174727009058   -0.41124908774740   -0.49891410247157
H           1.80397763267384    0.19675427398891   -2.36311581138463
