    19
        -40.91892615
S          -0.90017789037215   -0.88025826778308    0.68777161440778
O          -1.07097862750622   -0.62008913274074   -0.72025484108830
O          -0.15090788973065   -2.07978802416842    0.99469712806338
O          -0.33619093463482    0.29544384175944    1.37686244987999
O          -2.34734388757089   -1.07020579181367    1.29649730554623
H          -2.19965141336924   -1.50687287363860    2.13032205848696
O           0.35102697636182    1.36932980018088   -1.98132082618252
H          -0.37014380151570    1.91266176809614   -1.59001215854578
H          -0.05305680753740    0.49092248102421   -2.06258748591349
O          -1.72396679423844    1.98195301098471   -0.41419154957928
H          -1.81659102703105    1.02308495011980   -0.54368631188776
H          -1.44947128365077    2.07882550058441    0.50238212359871
O           2.14227516744827   -1.63215482941275   -0.14076403640277
H           2.81754381636294   -2.07367715620703    0.37893471541791
H           1.27003485871061   -1.92042999265257    0.23248762237131
O           1.69333564773933    0.86013666608189    0.06676018896870
H           1.23528974416974    1.14960155691557   -0.85141579309687
H           0.87341669723291    0.71616903929443    0.70958888424852
H           2.03555743915326   -0.09465254661190   -0.07207107830851
