    19
        -40.91966057
S           1.13176313416108    1.25710855161245    0.26686353493888
O           0.85544955844247    1.48769594713187   -1.15962938991358
O           0.02407100637045    1.72156318981983    1.08744414565288
O           1.49650695297136   -0.11371926876289    0.52500901373477
O           2.37644773985820    2.15502672468417    0.61682644263897
H           2.06317348668490    3.03571274058508    0.43466832929704
O          -2.01420127872519    0.31977387591181    0.42306372504887
H          -1.26614980135642    0.89427924145840    0.75870011277365
H          -2.80494955636158    0.86164135225841    0.45339000129013
O           0.57295937756945   -2.19910634452300   -0.96502951710984
H           1.34089981965199   -1.68327079404068   -0.66973701199075
H           0.10344259244518   -2.39382448506885   -0.11725367439584
O          -0.45194779761311   -1.83434186604870    1.44063000816357
H          -1.23851201857671   -1.28210923427517    1.36380813760044
H           0.29896836118011   -1.21888380335306    1.47097148468192
O          -0.77708384347339   -0.25927852979305   -1.76598521576612
H          -1.41455055651665   -0.11080556388540   -0.99638354775917
H          -0.06257660786671    0.51889321259084   -1.63475456085915
H          -0.23371055884945   -1.15635497628127   -1.53260200802319
