    19
        -40.91864559
S           1.00458655114735   -0.04756874485582   -0.61314851651217
O           1.31076594417583    0.30809861824826   -1.95472158261538
O           0.84178954065198    1.03605394469868    0.32739554698530
O          -0.32939672910980   -0.87135422023579   -0.60899570805806
O           2.00803741050634   -1.05236249413177   -0.04912584605775
H           1.94888814884980   -0.98218012680029    0.97415711353537
O           1.55114222531209   -0.60878531036770    2.39413005454259
H           1.35793567444646    0.31371756925779    2.17852023824599
H           0.67765652857916   -1.04809596793298    2.48343312234040
O          -1.17877002270484    2.42058078352184   -0.78594151649738
H          -1.77496936101880    2.68653606484258   -0.08302308921807
H          -0.37759414513900    2.06925753638894   -0.35421584545365
O          -0.84996430527846   -1.72457926145600    1.96196022359246
H          -0.82481517991846   -1.44996095608423    1.03117056300760
H          -0.97204818827436   -2.67601746667422    1.96644693358345
O          -1.40855192603821    0.38959356223679   -2.49525938109185
H          -0.88954505974241   -0.48002884019352   -1.38160975153745
H          -1.51472902990065    1.23658060485886   -2.00715379445045
H          -0.58041805654274    0.48051469467930   -2.98401876440039
