    19
        -40.91722678
S          -0.85983819637561    0.24009271355213   -0.87625836441483
O          -1.22985736416597   -0.94637693326321   -0.16899738183829
O           0.60933000326041    0.02864763110642   -1.37273185875609
O          -1.67920707349283    0.66023975528738   -1.96464418098982
O          -0.73327115423291    1.42486653070262    0.09850116694250
H          -0.19301746490875    1.15393979977494    0.93473414406520
O           1.05883949032812   -2.50477772764730    0.05787060100636
H           1.75039049011187   -1.99462718158319   -0.36809564953791
H           0.22577956466441   -2.10225571660343   -0.22990681244580
O           0.55380521347730    0.71210210901365    2.14420724289507
H           0.24587624462229    1.18281632663681    2.92205760735264
H           0.30350261531602   -0.25249330201640    2.28095495799515
O          -0.25613614590260   -1.74667043406677    2.32726741307348
H           0.40370258758257   -2.24880072721492    1.81657604506489
H          -0.99972689037332   -1.65992478171928    1.71576346470671
O           0.32177238514468    2.28029802456497   -2.63867137785621
H          -0.57986009625920    1.92065497899021   -2.71008486411944
H           0.26956316103215    3.02812897113270   -2.03802582203265
H           0.78835262018407    0.82413996325618   -1.93051633122695
