    19
        -40.91793143
S          -1.54028980930369   -0.84530087056052   -0.01518209783496
O          -1.36580994796932    0.59113759066838   -0.07994073207800
O          -1.84129820832154   -1.45281774657746   -1.29096683905514
O          -0.39151328192967   -1.48970035947403    0.64206483796430
O          -2.77590240053251   -1.10369661130682    0.93704160544505
H          -2.96651106649113   -2.03209481318919    0.83357951215940
O           2.42557909583564    1.06330485316550    0.73799560446834
H           1.57020280503460    1.37680725099081    1.14180705847467
H           2.97072402867603    0.76420266404848    1.46850409371451
O           1.60560418845373   -0.88889734856199   -0.66214832641081
H           0.79767469620217   -1.24286194552365   -0.05253079205139
H           2.00807539807136   -0.09066827233267   -0.13981211937070
O           0.10922343917239    1.72844444579140    1.75119744963549
H          -0.50076892661114    1.25590709211241    1.13597387311781
H          -0.17927906474054    2.64309447186777    1.75301720797035
O           0.00888123867417    0.02615529337783   -2.41192300252409
H           1.10726874489708   -0.50954776581381   -1.48086814119333
H          -0.71087488101426   -0.62712697371161   -2.25943159063171
H          -0.33098604808590    0.83365906504041   -2.00837759181692
