    19
        -40.91577842
S          -1.86170933107479    0.67590348523820   -0.57035885066304
O          -1.33721655290882    0.43364408726369    0.75937398102751
O          -2.56495941127246   -0.61892516750079   -1.04497290443120
O          -2.70136300293163    1.79499805082361   -0.74579942572457
O          -0.64516995041582    0.80441859557052   -1.53319770662577
H           0.00390624035971    0.07191019881194   -1.36026319232941
O           2.64395368105034    0.37515903534190    0.43533096967714
H           2.00047177132798    0.85259885190739    1.01113845654617
H           3.10632119587988    1.05964212779041   -0.05235140057462
O           0.77111399315411    1.70461057772258    1.76010220595066
H           0.65177944048175    1.72874706214227    2.71121219868279
H          -0.04938220186341    1.31720028952406    1.39208577995470
O           1.08715594781587   -1.09533557981896   -1.04612834519482
H           1.71973657558015   -0.60080716343423   -0.44863940630835
H           1.58755628074500   -1.35226837111156   -1.82328235893049
O          -1.05086726354778   -2.19133467648265    0.32302523852463
H          -1.06459566392465   -1.46356793453688    0.96295110347043
H          -2.09706218076253   -1.38220221187531   -0.59503599441145
H          -0.19966956769308   -2.11439127738936   -0.13519033863855
