    19
        -40.92279193
S           0.30335808406788   -0.73364513683500   -0.67579548377310
O          -0.63693977305038   -1.64868056949366   -1.24171908972673
O           0.17417833794664   -0.84656938157608    0.86319691045062
O           1.67339111053752   -0.85519008819995   -1.06294449025734
O          -0.12456086321401    0.72345092406039   -0.97912694208013
H          -1.11474470675535    0.82798266062012   -0.76416466791825
O           2.59192276331579    1.59754865944887   -0.58783651099378
H           2.43852565730351    0.69747653716310   -0.93582472411354
H           1.87861435031281    2.13394765514434   -0.94290437311025
O          -2.58708529202583   -1.61376975583467    0.56939959889461
H          -1.95871557109698   -1.85876594594110   -0.13761632380918
H          -2.08196609411182   -1.65385106478707    1.38537032167643
O          -2.60476199104536    0.81656149938670   -0.42752831814228
H          -2.73456195573765   -0.05101103613022    0.03970623621368
H          -3.12308268426981    0.76430233571393   -1.23398348867724
O           1.99695884420332    0.66190231106307    1.79410547243702
H           2.28025689507432    1.15390606898476    0.97844936361298
H           0.87613596117479   -0.24972618957686    1.29746727710047
H           2.75307693738541    0.13413051712753    2.06174924183758
