    19
        -40.92179448
S           0.09146316967604    0.95443564309186    0.08546667444733
O          -0.56257370345170    1.82874781920087    0.99904596779397
O           0.91615446322922   -0.11096981901941    0.85969855623292
O          -0.79493368330193    0.25886385305620   -0.82615753362180
O           1.16846110400278    1.68848194945786   -0.70614091027281
H           1.80183066416266    0.97923289472308   -1.09812387682402
O           2.57358675852136   -0.25450109282208   -1.50850800477168
H           1.88705916240949   -0.79343243253477   -1.97554168335299
H           2.73627047726608   -0.70207244209184   -0.67281003776014
O           0.42527062524969   -1.44945842328052   -2.46183383386909
H          -0.13854503799912   -0.91026490644508   -1.87013585549200
H           0.10431525025418   -1.29945443790227   -3.35312739458005
O          -2.66485887977361   -0.16556372799201    1.08308641266593
H          -2.13172040825693   -0.13456195352891    0.27065219874926
H          -2.98197609541860    0.73219716899670    1.21199966429954
O          -0.66221218445747   -0.37040668099388    2.82357993443979
H          -1.49386442263072   -0.46066358255294    2.29761034940557
H           0.38378791763478   -0.32909811481399    1.70170824588100
H          -0.65751517719551    0.53848829554922    3.13953114638958
