    19
        -40.92158891
S           0.53086864104001    0.80818955367655   -1.11607995046936
O          -0.37944652251955    1.29429630730184   -2.11673795750200
O           0.30647280417815    1.43274704174843    0.19465613788024
O           0.59394915178153   -0.63983413680692   -0.98903062167786
O           1.98795465784221    1.24237754332518   -1.56260047146086
H           1.86686623624986    2.10401578220999   -1.94977784789124
O           2.03134712488378   -1.53398677829191    1.00847686683353
H           1.67681143224321   -1.22248077386990    0.14252599081297
H           2.06409403607087   -2.49175982694922    0.96349699674656
O          -1.53632940123071   -1.36905498033630    0.44261597856250
H          -0.85275674646803   -1.39370511103046   -0.25568881933268
H          -2.12589964303026   -0.63059201071005    0.15877397725072
O          -2.45068001716359    0.92980556348316   -0.48318415882621
H          -2.30473182870875    1.65724423410005    0.12608428793408
H          -1.82618274701709    1.08049300274318   -1.21942791502754
O           0.05414662461816   -0.24788680766351    1.99673979072044
H           0.18324436913389    0.56434082589161    1.33589705949560
H          -0.71533470932748   -0.79046827058203    1.48551733938446
H           0.89560653328888   -0.79374116533697    1.83774333635291
