    19
        -40.91898018
S           1.17561520483350    0.32232468593089    1.08487550916755
O           0.84527644504194    1.28224408600010    0.01714214326807
O           0.66548057753833    0.73168684372435    2.36722400164382
O           0.78349640156610   -1.02045601393626    0.68798706737964
O           2.75586705108215    0.31721568406523    1.17991090908944
H           2.97147579379249    0.99186648258107    1.81841161094984
O          -1.44369312490775   -0.60663313657909   -2.23214658221096
H          -1.78562916140661   -1.47772858273112   -2.02069118047140
H          -0.44817204285071   -0.69341098208121   -2.26155094173229
O           1.14295862275227   -0.74319884429914   -1.91661968050962
H           1.11734099150620   -1.01663739827349   -0.97611292029064
H           1.46726674270522    0.16232627311989   -1.89492995234378
O          -1.59716052450828    1.05419704264563   -0.33643730261496
H          -1.63499346499550    0.41826595438479   -1.16338193521485
H          -0.57147327090489    1.28662213521015   -0.22941411807647
O          -1.61310901728171   -0.47351083783346    1.68741530571638
H          -0.91696303192341   -1.07094087706724    1.35667038097426
H          -1.12831112259359    0.06634924236154    2.33540079841552
H          -1.78527306948398    0.46941825262958    0.49624687685552
