    19
        -40.92052675
S          -0.67171263438524   -0.47163740093227   -0.17827985756779
O          -1.88010303156619   -0.78784691719724    0.70758864054636
O          -0.60310084970173    0.93990103790622   -0.46382684583143
O           0.51924543266364   -0.99730633222771    0.44132018244232
O          -0.99123163139792   -1.23024545963425   -1.46958302992575
H          -0.53727360918477   -0.71603250680527   -2.23514613026005
O           0.33951575130944    0.25621197698336   -3.01638281766622
H           0.08770521790400    1.06882809396844   -2.56198046008981
H           1.21695012418790    0.00947151273657   -2.64429488850949
O          -0.37332363523043    1.97304916254770    2.00908285021873
H          -1.03279624390093    2.66356991067361    2.10304680973589
H          -0.36913133622404    1.72186702261756    1.06608420243814
O           2.35134167270558   -0.58241088260173   -1.48393341465805
H           2.82034404130262   -1.40696793260304   -1.62791062619652
H           1.80654906437237   -0.71072329118757   -0.68449397971273
O          -0.69819672394523   -0.50941669005465    2.92108824608378
H          -0.54983081775036    0.45870701335335    2.82131979730244
H          -1.55114495461727   -0.75280698312101    1.68061600783440
H           0.11619416341933   -0.92621135446866    2.61568530380944
