    19
        -40.91930886
S           0.49930746959131   -0.08585057851153   -0.71756644100063
O          -0.99999352975302    0.18135983532962   -0.53181125154506
O           1.21203649884979    1.10853384572715   -0.33456287855624
O           0.86594865456211   -1.29669532635672   -0.06102360660468
O           0.66432139741940   -0.28276653275291   -2.24681803901384
H           0.69724351387909    0.62260595825419   -2.65037821992729
O          -0.07478181934116    1.08172365434395    2.08242135041878
H           0.53243929306909    1.21031182558667    1.33898989702490
H          -0.92253783512983    1.43275166788816    1.80031471435410
O          -0.19239106003023   -1.62133085209197    2.46124125071847
H          -0.16452679706922   -0.65953233215499    2.61815138596670
H           0.50253500696500   -1.77774993088625    1.80684781356933
O           0.98261909861409    2.25513364984675   -2.71221286527450
H           1.11575478578955    2.20326265702084   -1.74792536597473
H           1.82223298531198    2.51955857646011   -3.09659750791962
O          -1.97693902871965   -1.83681499779689    0.58442630660018
H          -1.66573957579756   -2.59969360708230    0.09062271405985
H          -1.41921888760057   -1.81161200766377    1.42013390254964
H          -1.47831016062204   -0.64319550506623   -0.10425314944020
