    19
        -40.92071439
S           0.01105384093009   -0.21060073675917    1.46692847724235
O          -1.06375539154379   -0.71588454445540    0.64445520540800
O           0.89532976830154   -1.23378891554928    1.97563323336858
O           0.75507593289508    0.84702999311898    0.75429637725979
O          -0.63923632116727    0.49638246774304    2.72138209428544
H           0.03136595982979    0.42828421381290    3.39511452141124
O          -1.30112715533649    0.19921516686850   -1.80793980405146
H          -1.49335548552970   -0.21429275548539   -0.93495767457736
H          -1.33823851790620    1.16067780096811   -1.62022080514990
O           1.11444724752463   -0.23749915344177   -1.48800323653200
H           0.07698882085959   -0.06324128234016   -1.80258620007430
H           1.14038662315733    0.29079830856919   -0.60813920570402
O          -0.80690219657222    2.53596605493825   -0.62607678314760
H          -0.26503581826796    2.02170903603149    0.00485143233212
H          -0.32048710318637    3.34008983879812   -0.81382673236962
O           0.95560429822923   -2.48816037183099   -0.32095080123144
H           1.06060495646029   -2.15890642524669    0.60302577731848
H           0.04178834542296   -2.78253994533322   -0.37824054276378
H           1.14549220552476   -1.21523876015001   -1.16474529281494
