    19
        -40.91373489
S           1.07784470477278    1.27136458548902   -0.08349510125247
O           0.55368541550012    0.79524146467254   -1.33582264272491
O           0.24203982278249    2.42560602064241    0.44795535908514
O           1.29022465542428    0.28511590232756    0.92418231587011
O           2.45453997550563    1.96381095601973   -0.38552474190523
H           2.33790230822933    2.55628655919577   -1.12656362182022
O          -1.18997312276883   -2.65056745558875   -0.16853628047652
H          -0.24633447050390   -2.49773313645262   -0.39582432038052
H          -1.52718413268800   -3.27877133617629   -0.80896335372082
O           1.28202281738750   -1.82162963818094   -0.84086272634670
H           1.55290403520208   -1.43862688552354    0.00341335830233
H           1.04376011152106   -1.05572074957608   -1.38060225372783
O          -1.88633479240823   -0.06093157339971   -0.28928886849424
H          -1.17827211459968    0.24894844152922   -0.86966548703961
H          -1.76115517078525   -1.03260236662785   -0.20281346177442
O          -1.26557755065553    1.12986611903642    1.91835873252973
H          -0.44848889200256    2.00397574992239    1.14131568630675
H          -1.69748587161686    0.64580910491812    1.15175676116514
H          -0.63411770818486    0.51055824773575    2.30098064619012
