    19
        -40.92122934
S          -0.11585342774822    0.22758586738946    1.10147749445085
O           0.22782122878592   -0.60030417872840    2.21303661108369
O          -1.10496464857368   -0.33654808870626    0.21198852160522
O          -0.55486738587056    1.60316318434377    1.58531095801408
O           1.14747051193211    0.55717948883532    0.25958016561689
H           1.52880284926901   -0.30997455326657   -0.09529382693539
O          -0.69730337944950    0.91190055924614   -2.09307853233686
H          -0.94939724727590    0.32128841946791   -1.35431590252034
H           0.22137974251924    0.71652148041904   -2.29093198646247
O          -0.05333390974657   -2.86422718606983    0.78745476903624
H          -0.84897245936238   -2.55222924714893    0.34345152604985
H           0.04477951213294   -2.27184073439332    1.55321728128549
O           1.92407191492789   -1.74303397418115   -0.52959116800663
H           1.20573366051969   -2.30091233505972   -0.12652879182312
H           2.74392101726098   -2.01999969246016   -0.11382990630778
O          -1.06917961637823    2.97061576562810   -0.49609821371304
H          -0.73761065122866    2.20986742422396    0.78282734110924
H          -0.90506940336371    2.30756456608799   -1.21607111083319
H          -2.00742829835027    3.17338322436099   -0.52260520932239
