    19
        -40.92343661
S          -0.21813654378334    0.59894445350549    1.56164173492582
O          -0.01800759728648   -0.79884676685059    1.87994941992987
O           0.77113116898596    1.10484990736865    0.62323981773596
O          -1.58304577813401    0.86477065192470    1.10507306814898
O          -0.02813008472529    1.42329479227287    2.89067521223005
H          -0.70290596903231    1.06386031541726    3.45822709591495
O          -0.34020711351237   -2.01993825554639   -0.41070822268372
H          -0.28683689538212   -1.76533925877670    0.54139451545056
H           0.54211556333610   -1.78130866799834   -0.76462635803931
O           0.16510956929917    1.30290654492949   -1.96776787801696
H           0.40927571675198    1.51495810074541   -1.04277997000650
H           0.87888005942746    0.74344370988237   -2.29327444386156
O           1.97100460353320   -0.73141185189877   -0.87233810595782
H           1.65137070599006   -0.05261736286234   -0.23764955622076
H           2.77559766857075   -1.09162911846498   -0.49691330156714
O          -1.77869447768832   -0.12947757798967   -1.16272175770572
H          -1.09964139999221    0.46606488833467   -1.65314635983361
H          -1.25370339553638   -1.03317163885602   -0.93610543040337
H          -1.85517581081924    0.32064714486575   -0.22216947004094
