    19
        -40.91040924
S          -1.08371523372645    0.19113951285540   -0.54682027927418
O          -0.73827384353072    1.18976045035453   -1.53994337161866
O          -0.47886865878723   -1.09219404396932   -0.83246030417298
O          -0.79262850613701    0.66040782386661    0.80974601314285
O          -2.65215130903942   -0.00629236587846   -0.59519597588064
H          -2.79826647828013   -0.49661015217422   -1.39903830107055
O          -2.17549023839366   -1.46479537921559    1.89540431569582
H          -1.65757989931231   -0.69429522560384    1.63146992388112
H          -3.06742313240271   -1.29678151552102    1.58659932931769
O           1.75455398624358    1.75981940471370   -1.21692015755788
H           0.80955535309397    1.54487194688434   -1.45599561513595
H           1.83538108352684    2.71306101245349   -1.29530995682456
O           1.77508476260289   -1.70433677307707    0.28655917221737
H           0.86055166905921   -1.64328798737430   -0.09651118979858
H           2.36018657965644   -1.90214710408222   -0.44836011288173
O           1.68383604939600    0.67770006165107    1.06280099302213
H           1.85759573056807   -0.33415938198625    0.84854162905770
H           1.86230435232943    1.18197505144763    0.17639046513803
H           0.64534775308941    0.71616464474947    1.12904342271761
