    19
        -40.91505825
S          -1.16373463701370    0.45230419946884   -0.82693630624881
O           0.23008512235096    0.56709587973349   -1.20509931555725
O          -1.23879924231565   -0.20152725944364    0.57247750498752
O          -1.91185850699458    1.65467911652556   -0.84950555748428
O          -1.80893517507888   -0.63699282328207   -1.71937218630975
H          -1.15932272825004   -1.37439543326384   -1.75186225164715
O           1.23685911735165   -1.46519812790041    1.18084928021322
H           1.32914052376887   -2.00075175156271    0.38719287366570
H           0.29243662657629   -1.28970783431481    1.26637401223649
O           1.66234875144716    1.27823801433910    1.01518183809552
H           1.79230522271500    0.35615110145484    1.29716371079292
H           1.37626697073840    1.20919605070833    0.09134694006164
O           0.47785052377541   -1.98951467945568   -1.65864276216839
H           0.87142165580179   -2.24795185308316   -2.49520913593037
H           0.68386062294992   -1.04062321742847   -1.52517760249202
O          -0.72407877436503    1.83747384343956    1.90696850036387
H          -1.11657442505136    0.58387957356390    1.25069766870027
H           0.25769115376933    1.78359934918994    1.72467234529513
H          -1.08696279208707    2.52404585129781    1.33888044344858
