    19
        -40.92246913
S           0.58822142634034   -0.12849052050803   -0.88491258282628
O           1.62955403352754    0.70678097104338   -0.33314256124576
O           0.50995704531299   -1.44741821095280   -0.33356951265855
O          -0.75058268190177    0.59215966116567   -0.75020744250654
O           0.76606203145042   -0.22662081147080   -2.41577856527876
H           0.87264812120144    0.71442572574406   -2.70432468029735
O          -1.57541855529531   -2.36178754756206    1.09635487835650
H          -2.17404410231062   -2.84141959999825    0.52137332849269
H          -0.76344225558926   -2.20079598538135    0.57921611882730
O           0.99346669005307    2.36301913110965   -2.35497460867016
H           0.12984683055232    2.69075255844805   -2.08870680451088
H           1.46756662279408    2.13893535472324   -1.53751612034996
O           0.97972586515797    0.08781156915269    2.21323733661416
H           1.19866010347272   -0.84637209818945    2.25730581173727
H           1.38772522339919    0.41909691704911    1.39487220260717
O          -1.57769574188589    0.25083495607581    1.54557999656780
H          -0.70993059440278    0.30962348762611    2.01440776792049
H          -1.18399149977071    0.49224569049233    0.25557974411477
H          -1.78832857145152   -0.71278125860292    1.52520569284271
