    19
        -40.91892639
S          -0.25985189032875   -0.19580992887299   -1.39681652873792
O           0.97377215022707    0.10823007354138   -2.08973466994516
O          -0.09822493659828   -1.35369366537829   -0.49764353819263
O          -0.85034799629496    0.92028552494840   -0.70037556191143
O          -1.30449187899610   -0.65623366144545   -2.49095413806526
H          -0.79686042833228   -1.18956594577234   -3.09555431374039
O          -0.73000989658804    1.10329884010849    2.03876359883327
H          -1.49968310712231    0.49568656022292    1.95834716876568
H          -0.73562571929287    1.57954826692359    1.19304155801761
O          -2.44260310048382   -0.58755843468043    0.87701968378988
H          -2.15425252384829   -0.01984209515664    0.14280954641525
H          -2.02599456070651   -1.43733625407430    0.70635391441282
O           2.53351227433971    0.91320838160246   -0.17479411715220
H           3.43212110096492    0.66828510912463   -0.40627986930582
H           1.97631760096769    0.71454627908675   -0.97061086788972
O           1.13970642756757   -0.45092476336542    1.45351768949064
H           1.80948854141888    0.12497549158577    0.93585520471050
H           0.40175368192237    0.21859820114562    1.83349664031322
H           0.63127424116084   -0.95569797955262    0.68355861020461
