    19
        -40.90733259
S           1.25497157086774   -1.40146508541964    0.06491015362915
O           0.67399661764483   -2.00652377592012   -1.08914984752873
O           1.61422407990280   -0.02154172412133    0.00436888386086
O           0.37697120061234   -1.66390383419318    1.29169527161533
O           2.57015031843867   -2.20980850812100    0.40330328581829
H           2.41839297625531   -3.11236418213198    0.13044693474538
O          -1.59830750266521   -0.47816347726265   -0.94017832975602
H          -0.91315227964745   -1.13865438051069   -1.11321536324525
H          -1.66984374366456    0.06482559034300   -1.74178520653541
O          -0.53075922563077    1.60805248969385    0.32128756274450
H           0.35350489376998    1.35673873709950    0.01212950259751
H          -1.10030453202138    0.86134013361803    0.02279486288404
O          -1.56972385430004    1.94459436046364   -2.35365756254038
H          -1.16898485838868    2.21046057405133   -1.51368021640770
H          -2.39883257740994    2.42052772913543   -2.42438091678471
O           0.30396373475337    0.51261535504028    2.57097931148681
H           0.31738075535621   -0.82412844097468    1.88690604430800
H           1.21414056291522    0.81999059537796    2.59338482400830
H          -0.14778814680012    1.05740784382022    1.87384079513021
