    19
        -40.92343610
S           1.51221615114311   -0.63459996877843    0.39474560166878
O           0.71254161853545   -1.31440796369437    1.39157833107906
O           1.41472398144809   -1.27912297453423   -0.91568023763158
O           1.21806114730534    0.78761599261485    0.31725408795858
O           3.02070968903212   -0.75030206022833    0.83430529759487
H           3.15616572062994   -1.69202146119318    0.87129998263017
O          -1.16392869650269    1.51273175031837    1.23806243810910
H          -0.22933668982815    1.29489826788729    1.02620520451227
H          -1.18085853218697    1.74506412845941    2.16747248111004
O          -0.40910178191796    1.70612129658737   -1.58844176892643
H           0.37705789870892    1.53452606052161   -1.02933794932774
H          -1.05097757382829    2.11664122634370   -0.99857529490062
O          -1.74339132034015   -1.01620540754562    0.54114208779314
H          -0.90502052033522   -1.32001801537450    0.96414889420198
H          -1.82861206394729   -0.08567538005641    0.83682781185508
O          -0.86228268895309   -0.79125600830105   -1.77903724471209
H          -1.37195297067864   -0.95248957045970   -0.85319005132790
H          -0.77862112528361    0.22890150682108   -1.87175001643880
H           0.11260776692965   -1.09040141951825   -1.54702965539178
