    19
        -40.92022153
S          -0.83795770482916    0.36955105336260    0.12369458468686
O           0.16401943656712    0.76449518264165    1.07997258668338
O          -1.53969490650043    1.58403839685385   -0.48351318889416
O          -0.32111516073224   -0.45971607960994   -0.94019059984700
O          -1.97588904211203   -0.35029632801779    0.85548565296667
H          -1.55735499242873   -0.83816814284711    1.65515304906398
O           0.58453842861652   -2.56194640506870    0.46036768405487
H           0.34905863805596   -1.83291489421109   -0.14505724227569
H           0.21934468534796   -3.36195354089089    0.07650745585047
O           1.91873514538681    1.74355402195226   -0.71232620121232
H           2.58944488970608    1.06265039762383   -0.79908128584547
H           1.38017547090184    1.49639165967515    0.06093548911006
O          -0.54336032551454   -1.45931073069450    2.62030744480336
H          -0.04884540408148   -2.02579249434843    1.98587943601742
H           0.01170166833152   -0.68290094646717    2.75818102418795
O          -0.05356906382423    1.84171057006398   -2.51357444098573
H          -0.05846597754551    0.90208613990017   -2.72872941979263
H          -1.05279545073374    1.82071563747881   -1.35562720294938
H           0.77202967539906    1.98780651273657   -1.99838482575192
