    19
        -40.91597556
S           0.90237294553436    1.04985141548164    1.20613026099514
O           1.12903191319627    2.14285129936923    0.27682031631540
O          -0.46471896789093    0.89628869495122    1.62063615132106
O           1.47040300690847   -0.20518596396430    0.67697672220961
O           1.75120529411069    1.37251809216929    2.49942967309279
H           2.61154434792791    1.56550478630027    2.14004081497983
O          -1.24872480480465   -2.26858992499107   -0.97495376444431
H          -0.93435415165566   -3.15838038869439   -0.80225823770943
H          -1.52996585756680   -1.90241960038529   -0.08922880275885
O          -1.84423771634403   -1.30808521193822    1.37267948381207
H          -2.73964568527391   -0.99213446059336    1.50852626660462
H          -1.26673891564452   -0.52168332762057    1.52171228113873
O          -0.17496413066972    1.64476539714946   -1.88993264039860
H           0.24303779233468    1.94602751187183   -1.03790246970717
H           0.19622025980323    2.19982521841187   -2.57915833430904
O           0.66657925266974   -0.72959471940252   -1.58467199786060
H           0.27685511137814    0.18289499340967   -1.84507658318584
H           1.08597507099269   -0.54417659198924   -0.60988915362519
H          -0.12987477502953   -1.37027721950830   -1.40987997644587
