    19
        -40.91384643
S           0.38307745574305    0.71483648696070    1.76290908971959
O          -0.93416705452907    1.13603725863733    2.14988740208912
O           0.40224963690001   -0.58386054460020    1.09693447183433
O           1.07907013454697    1.72117910713035    0.94346370316132
O           1.25181704961324    0.54496311488933    3.07247664758552
H           1.05908473633079    1.32018927318158    3.59311965247261
O          -0.97873858063897   -2.06786040189779   -1.89417984077495
H          -1.20147183016712   -2.85015746768410   -1.38632794260336
H          -1.48506947555024   -1.33604792190559   -1.51352660888063
O          -1.64590602725858    0.18351162183899   -0.35182835196182
H          -0.99036204496332   -0.22339885077031    0.26104800765088
H          -2.18101074952852    0.73525266517519    0.22774060012970
O           1.42861502892608   -1.00293210807627   -1.32791900474634
H           0.68973650715069   -1.53166701163057   -1.70154293314602
H           1.29691006504092   -1.03402047486899   -0.35703205227057
O           0.48364230619997    1.29545610744990   -1.40103200170612
H           0.99316307185307    0.35133946823260   -1.51965798340320
H          -0.46417282992937    1.02670802491770   -1.23631326671532
H           0.81353258983866    1.60047164200253   -0.41821957815965
