    19
        -40.91509395
S          -0.53835552180872   -0.54488604803526   -0.44590764826681
O          -1.64678859873002    0.35156518446461   -0.38150974560603
O          -0.02752522986848   -0.72660455441099   -1.88279140409924
O           0.57215875119614   -0.16965619185570    0.41256600159268
O          -0.95003595336978   -1.98881877529803   -0.12689157987347
H          -1.34301605486246   -2.02397390748791    0.80764243753782
O          -1.19515391689699    0.68991893742993    2.28389049896690
H          -1.76820036625401    0.99058956806290    1.56625788519462
H          -0.33619846977058    0.55986293572136    1.85270083389281
O          -1.77199795486457   -1.87574642885895    2.28757906066199
H          -1.66723594296774   -0.89924015697917    2.43761197773403
H          -1.15910732292008   -2.31303490029478    2.88335232258726
O           2.44761766696087    1.45514636973704   -0.56798271815695
H           1.78653953119468    0.90865906164949   -0.09644393245859
H           3.29165743790948    1.01536798986915   -0.44921804414665
O           0.95814119557111    1.46009008331913   -2.76582636841733
H           0.27566338024666    0.15643145376543   -2.27551356918316
H           1.55729158562002    1.64322436264380   -2.00528715963264
H           1.51454578357193    1.31110502662495   -3.53422887834676
