    19
        -40.91188295
S           0.38109960522050   -1.08535500897154   -1.31042548816371
O          -0.07278470707064   -1.61916802567504   -0.06341805995912
O          -0.57085800768654   -0.95520325673147   -2.36460698277395
O           1.09305378139806    0.25220035444509   -1.08962826929385
O           1.55878176839282   -2.00661124198363   -1.79693342260870
H           1.67182436689598   -1.87547751147024   -2.73660983239670
O           1.59095435200251   -0.36791018231924    1.69199411719367
H           2.03122523170317    0.16798016525550    1.02683799980790
H           1.03466379840270   -0.99089822191162    1.19602144893056
O          -1.86891853711856    0.43320538776972    0.54930686982764
H          -1.47801586721430   -0.44151748942231    0.42124380198343
H          -1.45985932642065    0.78705271521768    1.37201813836621
O          -0.43006500664713    1.10597178331581    2.70972670300801
H           0.38250209428063    0.62392054575542    2.44377111645418
H          -0.68814464712943    0.75126078342050    3.56181665972532
O          -0.87586107485360    1.67929245205863   -1.47344322524950
H          -1.38030368774783    1.35471668952148   -0.66219149748911
H           0.33052773575761    0.99514896005139   -1.25853418267540
H          -1.24982186217814    1.19139113173176   -2.21694589469433
