    19
        -40.91329951
S          -1.66121357426828    0.20832969881316    0.31386066151252
O          -0.81800235219196   -0.21383656156074    1.39789252068075
O          -1.78748400204072    1.72386995823640    0.33293842228372
O          -1.31853740839550   -0.29711613091501   -0.97698406918278
O          -3.12984148662482   -0.25512105657458    0.61262650935584
H          -3.35469732631082   -0.00297094411037    1.50679450186070
O           2.57143626402838   -1.15899167622229   -0.57944376956082
H           1.80448719959256   -1.70237508696045   -0.29181977986653
H           3.07107175179301   -1.69605725314004   -1.19602359102887
O           1.13844326316758    0.96445755988798   -1.37929529315928
H           0.28777677689078    0.52667129364145   -1.52098412748510
H           1.77379945460400    0.25366865390812   -1.13856917134758
O           0.24081948566380   -2.34194992393965    0.05553777753713
H           0.00022864393108   -1.80113686559248    0.82131562535071
H          -0.32029607790098   -2.00542269214262   -0.65404531953070
O           0.58598820017891    2.24576578366745    0.78633767851669
H          -0.80852429717916    2.09134838545255    0.54039250058107
H           0.78303831984976    1.57910138128845    1.45343457342821
H           0.94150715521888    1.88176549623448   -0.08396566992762
