    19
        -40.91873462
S          -1.06083844960846    0.51188100760161   -1.24110715158482
O          -1.58417736202150    1.18092268902576   -0.05814414242954
O           0.36194416375986    0.75833225100705   -1.39974398094407
O          -1.36652658774882   -0.91284037395995   -1.26360069147993
O          -1.80808592614097    1.14104516470639   -2.47712810139671
H          -1.80471557869771    2.07236090141097   -2.27948610675759
O          -0.70449860283608   -0.08535531789033    1.98937851726856
H          -1.09251150971025    0.45939832539678    1.24435877348437
H          -1.41203493540899   -0.21606382967528    2.62345866488788
O           1.67149254318715    1.18118883636802    0.99443537070671
H           1.18031911762388    1.35208663587152    0.17343528204281
H           1.00795345531532    0.99945581596175    1.66828975288020
O           2.16340984515537   -0.98162772963056   -0.45160277425898
H           1.71142427977196   -0.47200727252410   -1.15271610605390
H           2.35118756161455   -0.28911578450594    0.22262687389416
O           0.07518725231357   -1.98806686379387    0.44430007457610
H           1.05062318889292   -1.67199054567500    0.08771905258484
H          -0.17078725316596   -1.35765004668047    1.19877211084642
H          -0.56936520133158   -1.68195386289898   -0.32324541771124
