    19
        -40.91617343
S           0.62921412272484   -0.85505729774825    1.04269728564110
O           1.68312812932189   -1.82463134917459    0.95529967597947
O           1.09993282701603    0.52305191800838    0.79011814064284
O          -0.57173849181263   -1.13894503438086    0.29757013952860
O           0.15369185241327   -0.82690965899280    2.57848036980875
H           0.91967186514121   -1.07750047862369    3.08804812635104
O           1.74184481539418   -0.84934874942816   -1.55688749756692
H           1.71419081935912   -1.45239175733438   -0.79666644946863
H           2.28255645865170   -0.11192795893367   -1.25936747340237
O          -2.40494467659778    0.51149771914027    1.07021371746762
H          -1.88964775755260   -0.28154629148475    0.78017067944123
H          -2.28052483073071    0.56840467218374    2.02024102274711
O          -0.45002924375374    0.41796169700441   -2.45584798291287
H           0.22013151826380   -0.22673171238051   -2.13335757958247
H          -0.09161002794089    0.80637900374981   -3.25676000564629
O          -0.69410769858626    1.78342939122245   -0.32082220161382
H           0.13596468641862    1.31173984534268    0.18841953701050
H          -0.69531741149340    1.29987362535988   -1.22770689435043
H          -1.50240695624611    1.42265242646113    0.19615737990027
