    19
        -40.91329961
S          -0.55603009547058    1.10192008086599   -1.17457723466441
O          -0.39767539250495    2.43254654770868   -0.45496956498724
O           0.73745468521539    0.50674915818015   -1.36733444088707
O          -1.54363010747768    0.26594099763217   -0.57029005519048
O          -1.11817808655952    1.54009465641622   -2.57199530251443
H          -0.43970484162303    2.02862067058195   -3.03536560051114
O          -0.14989183450677   -2.06350209631037   -1.12380169076850
H          -0.99207828589612   -1.61750844303153   -0.97037774143571
H           0.45112034361564   -1.34874880562037   -1.37805673375518
O          -0.45438831342928   -0.04695847513782    1.98065739227776
H          -1.07005817917428    0.00898972860288    1.23690642077059
H          -0.02193955156620   -0.92723908943574    1.91048124893850
O           0.66680835362809   -2.41884484654854    1.41442659590710
H           0.44403423026235   -2.41584687933439    0.45711435000558
H           0.32530253226710   -3.23967197254516    1.77198180817337
O           1.27321752457131    1.70482109575650    1.21566390013209
H           0.32915246048503    2.26302165397060    0.30572315994036
H           0.66802629188370    1.05673108001928    1.69504785592277
H           1.84845827460593    1.16888493779967    0.65876562196247
