    19
        -40.92037968
S          -0.76514574782162    0.76257544484547    0.01415188457187
O          -1.26955839765786   -0.57087146991869    0.29813947970895
O           0.39566675309127    1.06425622301741    0.94521297078824
O          -0.40738116196454    0.98168271762280   -1.35085592389323
O          -1.84022873497537    1.78695004202477    0.43271404453281
H          -2.22759296582146    1.44217334051599    1.27627530934430
O           0.72734162473396   -2.22781735945852   -0.37818657196435
H           0.66346959491503   -3.00590929187021    0.17920027082861
H          -0.08117630388246   -1.70381107257914   -0.21775547930694
O          -2.72034534530531    0.26012443980271    2.34590230610953
H          -2.21909105730487   -0.35038369579660    1.77333399946783
H          -3.64584305179058    0.01242167224285    2.27865919369997
O           2.36403872264449   -0.17648739176817    0.10487680962352
H           1.30411305112272    0.56324545157778    0.64053089724281
H           1.93804715464572   -1.04633403995147   -0.06622984680530
O           2.08975981872105    0.80483760265537   -2.34048111482189
H           2.48570073503508    0.23337082616263   -0.78645991446040
H           2.04108772730814    0.14759650631447   -3.03788732092207
H           1.16713757430613    1.02238008441898   -2.11114100360599
