    19
        -40.90722390
S           0.15607445860090   -0.37334574141718   -0.41350356010215
O          -0.54354551836232    0.11400686929506    0.74798059519228
O          -0.51215720120202   -1.36071241596065   -1.19260116338325
O           0.52903180244130    0.85098828550786   -1.28273454752301
O           1.54586052969264   -0.90720468477415    0.00173889912774
H           1.87054878310853   -0.31668620902656    0.72608692188108
O           1.67945196613083    0.75893930657554    2.00764481862565
H           1.89176995558383    1.69237511545543    1.93509255270994
H           0.71754918995277    0.66427661489117    1.86331330933946
O          -2.74404552801326   -0.33976953305265   -2.31557938717244
H          -2.74612265982386   -0.54154443905193   -3.25348043785424
H          -2.03995445501252   -0.88359003300919   -1.91708154776021
O           2.26803681308657   -2.04650092513086    2.78272919812181
H           2.16595131794326   -1.09330783729813    2.85654968559282
H           2.11780976808684   -2.27201833504359    1.86228865758264
O          -1.79127143200706    1.84991178096726   -1.15824227339144
H          -2.29906590004467    1.17776089077567   -1.67040135561847
H          -1.93569698272270    1.62948925759645   -0.23152322927742
H          -0.33022491735436    1.39693203271550   -1.34827712609830
