    19
        -40.91814264
S           1.17758009472731    0.45952437526158    1.23050431392948
O           0.79480756656523   -0.95644549520991    1.15558893895678
O           2.48783205336478    0.71716696112798    0.70860705330049
O           0.11611087439007    1.30164027245417    0.68793336247975
O           1.22538869262663    0.80447975207163    2.78296308165083
H           2.14369656429935    0.68174522196847    3.00402383939873
O          -0.37202111349009   -1.15057698397089   -2.41336391515627
H          -0.99693010089741   -0.73528778400613   -3.01123416782126
H           0.32066937278610   -0.46537775933719   -2.21615815421869
O          -2.35433671228628    0.53846656765326    0.52731957032810
H          -1.45997113376827    0.96407245595104    0.59377536317467
H          -2.76309113716915    0.63651807089041    1.38924648801619
O           1.21701798223368    0.80594894051713   -1.68918602716339
H           2.05833500841353    0.64345064097292   -1.24202942751182
H           0.68873219380028    1.24176085218947   -0.99979738056223
O          -1.21648528820717   -1.65319486812163   -0.07562351115447
H          -0.91485636650252   -1.54510924369255   -1.05822379515980
H          -0.33109901866680   -1.43374329150752    0.48986412462343
H          -1.82137953213267   -0.85503870530502    0.13579024281564
