    19
        -40.91990167
S           0.73281519879666   -0.47676653139661   -1.23165220693260
O          -0.66671348045335   -0.08220071590040   -1.19652058211748
O           1.40401083510421   -0.03847562513075    0.01380094923056
O           0.93530606807223   -1.87030394557261   -1.49852373281227
O           1.40742211293769    0.35867648295495   -2.38696109839390
H           1.03279683977193    1.23448956094295   -2.31839795561816
O           0.72796864262687    2.48683903578773    0.38802927854541
H           1.36814134118556    2.95579559435386    0.92573048240025
H           1.09535106359084    1.58973154998928    0.23645229117120
O          -1.56526694623448    1.15557539419063    0.92011163935176
H          -1.47709615692960    0.77258441047898    0.01605696338804
H          -0.92974629570436    1.89754163110283    0.90725804744051
O          -0.98643212383514   -2.54784885558341    0.17127711390748
H          -1.74269533290756   -2.20707757170193   -0.31581707701967
H          -0.23590993801652   -2.50651522613400   -0.46485459368658
O          -0.21224293828337   -0.74407910609500    1.78399248148797
H           0.59333869457111   -0.49108847027380    1.18713225999865
H          -0.88421311148505    0.07491213173101    1.57615132697608
H          -0.59683447275332   -1.56178974402012    1.28673441270578
