    19
        -40.91274180
S          -0.70549600592515    1.06702421470823    0.28021600358432
O          -1.55297333402109    0.39108563526609    1.24386836577277
O           0.66719686263241    1.19278028524608    0.70482383815462
O          -0.82269858650630    0.40877929343357   -1.03617525912192
O          -1.26703087266200    2.52145850369696    0.09472895693014
H          -2.16616299824090    2.41962758605872   -0.20432505502954
O           2.25789467565400   -0.82826481840248    0.23812487503682
H           2.52311605853865   -1.16866396726824    1.09550076104335
H           1.80191741398978    0.03195726232343    0.40834475247313
O          -1.03655685295649   -2.13426112740291    1.36221566550992
H          -1.25043729041197   -1.16440714932295    1.44595112560617
H          -1.87472792463036   -2.59817144413503    1.41708981930095
O           1.04780619270002    2.30954474659975   -1.85506875110895
H           1.24826224465205    2.31455957727930   -0.91472698083713
H           0.34893653463481    1.65606994919786   -1.95720251542865
O           0.20141839939004   -1.83425987879119   -0.81877142561431
H          -0.30651107110879   -2.12696897044389    0.03125381701383
H          -0.25449303375849   -0.90884521342187   -1.05386552766252
H           1.14053959803474   -1.54904450462048   -0.48198249563236
