    19
        -40.91188282
S          -0.39945578567048    1.35279145426548    1.02412264796597
O           0.40097116892082    0.13882505891377    1.50396343001285
O           0.48368181474330    2.44621384792231    0.78132737827077
O          -1.29674271875256    0.97421638831717   -0.02351121868774
O          -1.28347779900745    1.68039266495380    2.28278999634841
H          -0.76705208494153    2.22003284214877    2.87861966425225
O          -0.22592943247197   -2.32657998224226   -1.81121820622071
H          -0.74208633288462   -2.23439587677960   -0.98147632101806
H          -0.84477934831895   -2.61423521236826   -2.48400694493267
O           0.65212167797192    0.20612222431645   -1.87483673750080
H           0.43967382674886   -0.75076438251484   -1.96801961325913
H          -0.13064014535164    0.60726978985618   -1.47405256366980
O          -1.57094812158570   -1.69451035849742    0.44372642537139
H          -0.94169722041129   -1.72115943851555    1.16949386383550
H          -1.69150308269993   -0.75251510173022    0.23947673434421
O           2.34843432154105    0.49618974743668    0.04082333967117
H           1.84555346544606    0.33009371945415   -0.81781297709846
H           2.40092202269838    1.45601510036586    0.12268046061168
H           1.32295378419785    0.18599750441585    0.94791064157502
