    19
        -40.91328327
S           0.86747853557808   -0.51637476903011   -1.43578662798852
O          -0.11830496614223   -1.48342588163620   -0.80223806721506
O           0.29799918826420    0.80553923599781   -1.45391253865447
O           2.15388062078823   -0.67139789087917   -0.85126909827973
O           0.96308955449364   -0.98693767509733   -2.93717562675972
H           0.31898079148440   -0.49378715250820   -3.44127918020368
O           0.14955241020419    1.54476497813171    1.22105371121434
H           0.83125813639674    0.95264305159139    1.59231640736105
H           0.25872495406981    1.50131596351318    0.26073055362573
O          -2.15065047373354    0.33460407390436    1.71288947160290
H          -1.90819695897301   -0.41207881662721    2.26344825895239
H          -1.33989785513312    0.89918566993491    1.64368268047616
O           2.03793345234971   -0.31481234709859    1.82663629320772
H           2.90711549670037   -0.07961311704712    2.15766494116110
H           2.15883077736804   -0.57016949359373    0.89516397957065
O          -2.20614497756395   -0.15307290681196   -0.83312094266985
H          -2.36134215048263    0.00208849415177    0.14660498776606
H          -1.78901872746470    0.65790823864909   -1.15187764682491
H          -1.07128779821163   -1.01637965554429   -0.81353156634337
