    19
        -40.92135265
S           0.18334425506981    0.67997937598359    0.54007345592202
O           0.76503650781292    0.71603294666725   -0.81680339036365
O          -1.26351407587745    0.86506227640545    0.48587320311300
O           0.55918602480977   -0.54000800597343    1.22146813388792
O           0.79623580030447    1.87172938652812    1.32499506317047
H           0.31542720034573    2.66383264202910    0.99280756155968
O          -1.69776631785846   -1.60576086893377   -0.31298199599695
H          -1.72188823889796   -0.66369255680292   -0.03011183502286
H          -1.42623379190648   -2.09581475432716    0.46859036339804
O           1.88712096698345   -2.41109485033778   -0.03189748319382
H           2.81584226916614   -2.17223663906547   -0.05063395844815
H           1.45022864405499   -1.77495964906473    0.58628687553983
O          -1.03429954382521    3.48692854737845    0.36503547496662
H          -1.39231010997498    2.58635129221097    0.23970628216550
H          -1.60762992392223    3.92486354097240    0.99868460145484
O           0.34818303177668   -1.46727969248971   -1.82971982499000
H           1.02003855104567   -1.99595085747158   -1.27140042962472
H          -0.55569537745513   -1.63638966771887   -1.37842108425393
H           0.55869419475266   -0.43159250941941   -1.50155100167907
