    19
        -40.91070910
S          -1.35287288855593   -1.19669915513680    0.53532130362057
O          -1.13713426737359   -0.31150229823246   -0.69295638435637
O          -0.22213248296553   -2.05745992340075    0.71230281732263
O          -1.77243659405360   -0.39209222240475    1.63187621482110
O          -2.56891824464714   -2.11446256175157    0.11800845455135
H          -2.19922933203578   -2.95081019127149   -0.15640261811872
O          -0.04300499420630    1.57500542927915    2.31510300313480
H          -0.65829038402109    0.83390160138845    2.17116409890767
H          -0.47535544662903    2.16904973522508    2.93155817934776
O           0.36592430026896    2.10764284548832   -0.30640510866352
H           0.35598796358159    2.05298269369971    0.66989700475365
H          -0.37251766564051    1.55953013793206   -0.59534227781946
O           2.41515865169140    0.74004385878704   -1.26876211155078
H           1.72972169244716    1.32536110500783   -0.85556713253156
H           2.74265137631160    1.21264431303869   -2.03568415209946
O           0.89953789870837   -1.34126702400619   -1.61186063966777
H           1.00515147507293   -1.88335653651797   -0.81497585835914
H          -0.28523143059149   -0.72810546051877   -1.20940968568941
H           1.57299037264297   -0.60040633661374   -1.53786512759377
