    19
        -40.90459533
S           0.37273794631891    0.94806101846477    0.34405380252673
O          -0.06133519490284    0.92038703890530   -1.02696287650436
O           0.03526991890692    2.28161741569005    1.00296337587656
O          -0.12497145015353   -0.14148433363451    1.13718933509314
O           1.93187063542529    0.97505597691410    0.38798586762052
H           2.22833379925713    0.12979737516135    0.00350507811963
O          -2.70947084127741    1.32655319243415   -0.62805197332588
H          -1.80488665041029    1.11426756675392   -0.91989543530828
H          -3.01834445369149    2.03845551560724   -1.19278428522434
O           2.24828680220545   -4.08042911680825   -1.47607124524694
H           2.03708258663016   -3.18277159412971   -1.18700569389142
H           3.14822100479762   -4.25288418221532   -1.19546774524629
O           1.47209787538238   -1.43512696578422   -0.66784971397067
H           0.97400624153971   -1.11042266806179   -1.42621423817793
H           0.83165077315229   -1.51470650398387    0.05360649534344
O          -2.18009210836878    1.60157400055096    1.97371078742434
H          -0.86143734384276    2.15620138169261    1.50915422013604
H          -2.61757423619898    1.51669567826999    1.09632094196009
H          -1.90144530449450    0.70915921410437    2.21181329267136
