    19
        -40.91955065
S          -0.15339508787228   -0.07154706279768    1.15457073667240
O          -1.46346822267370   -0.39658080252878    0.41296041937321
O           0.89597262594942   -0.90507737123225    0.61508793258663
O           0.10566578359672    1.32968467579926    1.14045439194085
O          -0.47990558522351   -0.53485874822049    2.58850293884773
H          -0.59377092747558   -1.51454756115865    2.49735093060198
O           2.35075618470465    0.24103572400298   -1.37371236849177
H           1.86628355908712   -0.26244293112742   -0.69553710168375
H           3.23530425642796    0.37596254005828   -1.02894045074238
O           0.54916711091048    2.25833819562935   -1.38811983177585
H           1.27208276390704    1.63455986030487   -1.59991909939907
H           0.48513738345255    2.24050445351283   -0.41998629424460
O          -0.57625172438230   -2.92961908362837    1.58905482265092
H          -1.34419535696129   -2.94602455985395    1.01118349963240
H           0.15615439869673   -2.56639491044271    1.06496160501379
O          -1.62729923570427    0.91703491845859   -1.71374095323797
H          -1.55233200220188    0.12073178486264   -0.48916970410701
H          -2.34914960855279    1.54684907754118   -1.64928437646270
H          -0.77675631566934    1.46239180087324   -1.71571708718542
