    19
        -40.91893390
S          -0.41169454632403    1.62478641194661    0.45250501390585
O           0.33124285970087    0.78913851178850    1.37526304721732
O           0.39245120399348    2.48741618563398   -0.37526881916430
O          -1.36035273208494    0.82511260974254   -0.33739686731220
O          -1.30855111267081    2.57603846970442    1.35324026966009
H          -1.45555313077137    3.32904082862250    0.78886240500958
O          -0.13566675979815   -1.70945326279336    1.87498558050372
H           0.12277273627027   -0.75571352944336    1.78542951059427
H          -0.70370403484359   -1.76367206478580    2.64566954662508
O           0.77817668390083   -1.55055898827233   -2.03745999454870
H           0.54612197624439   -1.22347724794042   -2.90882324350030
H           1.32202599314382   -0.83571756482635   -1.60967879649555
O           1.98961688157819    0.43394702407794   -0.82304857345363
H           2.11452399313978    0.23611744401122    0.11003845172598
H           1.48964230558879    1.27528455673863   -0.82379358205988
O          -1.17891311203975   -1.62603478529430   -0.43741769336101
H          -0.40279659499342   -1.71389736460645   -1.11768658206023
H          -0.78576996745381   -1.82973733582933    0.48713370587925
H          -1.34357264368999   -0.56861989908065   -0.40255336884560
