    19
        -40.91328333
S           1.66460323999795    0.36892286463872    0.41561639588203
O           1.39993931111374   -0.76022038421527   -0.56573790041096
O           0.80311940843185    1.48110622690584    0.11055820515913
O           1.65559294147814   -0.12504070147332    1.74843976488717
O           3.13442936304355    0.83346706543618    0.08616764418436
H           3.08258269229914    1.54351360622434   -0.55051195203334
O          -0.69057109280983   -1.35096392787930    2.30022482476120
H          -0.82897943316379   -1.36752380782984    3.24940989312150
H           0.21946461975994   -1.03483523246658    2.16111779893323
O          -1.75596896432247    0.57113344262783    0.69977076564111
H          -1.53487450674506   -0.14462096418073    1.32583436357589
H          -0.94073515355032    1.07878746201747    0.58274492832590
O          -2.15535924579641   -0.64251620212440   -1.61647300764335
H          -2.17142724215387   -0.16058974138284   -0.75135959672727
H          -2.11881209924243   -1.57593269230030   -1.39993439233686
O           0.10736000510708    0.40619463335256   -2.32584546066041
H           0.88327876978661   -0.34467614704771   -1.39455364949964
H          -0.79674207305736   -0.01933617298975   -2.22788175977395
H           0.04309945983498    1.24313067268224   -1.84758686538605
