    19
        -40.91617692
S           1.25960683339806    0.91441555099259   -1.21594475047732
O          -0.08298286422342    1.61196016838090   -1.35072331607575
O           1.87565706395521    1.28238304451866    0.03630241763189
O           1.17682005239061   -0.48330334258490   -1.47193847448295
O           2.08492423448607    1.58340181575961   -2.36889160737804
H           2.19212987160999    2.49761028233291   -2.11647678897532
O          -2.42776955898625   -1.44483938945878   -0.16800859582265
H          -3.03500181960409   -1.94681745071236    0.37755618911286
H          -1.54242409177372   -1.87594001171112   -0.07492577247288
O           0.61552044180097   -0.00485366539212    1.94588805406346
H           1.19796083205250    0.45051582549358    1.29664771821559
H           0.92304114712341    0.25392931085979    2.81680753819651
O           0.05854501277584   -2.24162151900986    0.29912993037803
H           0.30350499874772   -1.69326571227141    1.05700064622203
H           0.52074031427225   -1.84453762157282   -0.45631585998026
O          -1.51617008600143    0.90987574929912    0.53367161271461
H          -0.86037826881174    0.59925781690428    1.19034239617262
H          -0.75763545366292    1.34095145361829   -0.54801202869227
H          -1.98608865965251    0.09087769455870    0.21789069163409
