    19
        -40.91256602
S           0.75150152305491    0.73980559621438    1.06869066192420
O           1.37367782796645   -0.28347204442209    0.12233587541715
O          -0.30747228545888    1.43421524861362    0.41978939763421
O           0.49703777969208    0.12326636739826    2.33259014304097
O           1.92626265068649    1.78241805029215    1.28304904303315
H           2.45686158297526    1.45933971564193    2.00784360859992
O          -1.64553429990459   -1.40560378109764    1.69776917276212
H          -1.91807301402746   -1.95852607969114    2.43266226076501
H          -0.92514201484762   -0.84043224381302    2.02168726882989
O          -0.89202869576210   -1.92662408310585   -0.87238761965983
H          -1.32039158951121   -1.83607509574288   -0.00281113325315
H           0.05312635056112   -1.88423670256354   -0.70271585652524
O          -1.32339272981142    0.46947611150983   -1.99748465603211
H          -1.32591322260005   -0.48103214911973   -1.74502973576021
H          -1.42974975944829    0.95086543242421   -1.16580222598259
O           1.19638575854335    0.90586493941817   -2.03854437005378
H           0.20363768290587    0.73313967826111   -2.19815467082748
H           1.26351726069637    1.83887890445262   -1.81859732770875
H           1.36568921359553    0.17873214482505   -0.84488981645982
