    19
        -40.90771846
S          -1.14867500878801   -1.45963258605150   -0.29201831370998
O          -1.26014008889597   -0.92928750972982    1.03374695186455
O          -2.14591448823937   -1.11422043789043   -1.24153395309352
O           0.24353942254470   -1.12092497950716   -0.86471434597494
O          -1.06716808630811   -3.02562933255766   -0.16261994442677
H          -0.67517007788173   -3.21883061045285    0.68728866810907
O           1.18803211172592    1.91644637766357    1.70891753562553
H           1.68919232172361    1.13891964473866    1.39153275011165
H           0.96299312374687    1.73456601176279    2.62291055163451
O           2.39273936139442   -0.29552470896556    0.66383609560355
H           3.07269095157334   -0.06574870201780    0.02705372398948
H           1.65739600436199   -0.67457986891709    0.15671268658118
O          -1.05116543445608    1.69411349803986    0.23925948905746
H          -0.24597704779022    1.95920998548249    0.73815428636152
H          -1.33414059786233    0.86120031994252    0.64557974219698
O          -0.41952464118962    0.88866328358713   -2.11387290257991
H          -1.25888296938657    0.57547999304247   -2.47232876262688
H          -0.66244092115737    1.39169635798712   -1.26978263706292
H           0.06261607488751   -0.25591674616200   -1.49812161164196
