    19
        -40.91864565
S          -0.93548098431363    0.06432848873553    0.71683106602128
O          -1.04718142514450   -0.00567928314286    2.13197457541779
O          -0.70854275101162   -1.17932016041834    0.01896608741277
O          -2.12984009329718    0.77995807912634    0.08747607501483
O           0.25310757498142    1.02191204967895    0.35865982445598
H           0.94028905800014    0.89340044132063    1.11739747947883
O           1.69345162354911    0.37759179219470    2.31341626592384
H           1.87632496451345   -0.53934258563082    2.00873304070602
H           0.94174413353569    0.30027963513222    2.91500885744953
O           1.60218741289400   -2.00400866099647    1.12259916221706
H           0.71666245499541   -1.86575130839028    0.73722369595229
H           2.15840985815590   -2.34182760711655    0.41779239131784
O           0.38548291435704    1.30464032750873   -2.38166054233308
H           0.49284319113290    1.25462648297970   -1.41812857456483
H           0.37057286377494    2.23602905026332   -2.61056336730130
O          -1.85990006894683   -0.15665409951621   -2.24164497655779
H          -1.51308301555005   -0.97478009678695   -1.86070079793553
H          -2.16352930274430    0.48337788757794   -0.89566973899407
H          -1.07351838882338    0.35121956748519   -2.53771052369712
