    19
        -40.92179409
S           0.90747833491056   -0.25147201637106   -0.19481072245795
O           0.46037202517867    0.78421248460740    0.87380874027665
O           1.69435567969506   -1.27248557207070    0.40954336192030
O          -0.27748261152256   -0.72694689922338   -0.88062220896741
O           1.74330053291490    0.59942250597853   -1.14489733645709
H           1.23547265464602    1.48004439662381   -1.29959269235249
O           0.30310307033627    2.67094897841576   -1.31616315237182
H          -0.54980225793399    2.27292939628215   -1.62245714166000
H           0.18100263474170    2.86991375883664   -0.38307121861637
O          -0.83595525772994   -2.55124191527057    1.03826238914277
H          -0.82640233220130   -1.96614474515513    0.26184406265053
H          -0.12488230340863   -3.18013409023496    0.89058836508513
O          -1.79263634246046    1.19317749015965   -1.93045342336245
H          -2.00734609552406    0.95151002668480   -2.83341878974727
H          -1.35951075133633    0.41141848933057   -1.53046614824270
O           0.19316898379002   -0.84040381076239    2.79817789975594
H          -0.33725821987767   -1.51549510776925    2.30923996726739
H           1.09019946416761   -1.18807484013729    2.82082100942204
H           0.30282278149158    0.25882146974650    1.73366702880203
