    19
        -40.91188279
S          -0.21351976960803   -0.54358004652921    1.64354944869801
O          -1.41807595158516   -0.01622677191278    2.19641709653374
O          -0.54027481087374   -1.40591821911892    0.42108606004449
O           0.83831486987687    0.37588024864409    1.33629132500153
O           0.38486510576939   -1.60193888375696    2.64064620363401
H          -0.33979627143391   -2.02484991175830    3.09777995863667
O          -0.53253644744891    1.81957129871690   -0.62631395856966
H           0.02633707453942    1.62385753863794   -1.41293503482690
H           0.01121182589194    1.59374527484205    0.14027047244479
O           2.04735055415068   -0.87305554260103   -0.75977797663398
H           1.82486361189360   -0.38545195153126    0.05040090709057
H           1.41905582736970   -1.59885841414338   -0.80294522988464
O           1.21369983766532    1.01890529661586   -2.49694202414601
H           1.94554824539964    1.59631965105164   -2.71921237117661
H           1.59233476968481    0.28069913313133   -1.97243680892137
O          -2.35840076146091    0.01369405446635   -0.43889053432063
H          -1.76416689249931    0.80091295546592   -0.65134927142809
H          -1.36642535275727   -0.90096500549860   -0.05251192317619
H          -2.77038546458072    0.22725929527978    0.40687365100458
