    19
        -40.91058114
S          -1.39544860258899    1.19129476569231    0.62965413506897
O          -0.42212980500693    1.33767088949471    1.67641453672151
O          -0.96424211163661    1.50383019492000   -0.69404556270499
O          -2.02342202367090   -0.19480412010160    0.69240204559561
O          -2.61534785589732    2.11054099721256    0.97610081522899
H          -2.76808812043584    2.00577866246122    1.91237615411784
O           1.46154093647670   -0.51623741883991    1.42698657411994
H           1.94110260117834   -0.65828295637510    2.24511870899514
H           0.86702064504974    0.24802700540562    1.57239361817751
O           0.17553015288374   -0.32957091765850   -2.25676940036650
H          -0.15560221605610   -0.29215781564223   -3.15554735651388
H          -0.18684020797099    0.44823770850329   -1.78752432443242
O           2.83960354546934   -0.35261852773899   -1.11418007041677
H           2.51538264817021   -0.35117382312179   -0.20641703580374
H           2.05606040821797   -0.32156362787383   -1.67408694897395
O          -0.32431389998359   -1.81490492441768   -0.08930636632120
H          -1.33794217134713   -0.95500410405295    0.35838542925766
H          -0.10263874831006   -1.48509572197038   -0.98714174325498
H           0.43977482547877   -1.57396627587051    0.47518679155494
