    19
        -40.91188298
S          -0.69126147252899   -1.46184620297744   -0.65557317341394
O           0.80415232522464   -1.28940202772192   -0.37386486184724
O          -1.28842131932442   -2.24332548491007    0.37741513351479
O          -1.28749999941278   -0.19955112428289   -0.96703729543252
O          -0.67874521214419   -2.29815844241257   -1.98705443748176
H          -0.57167156435724   -3.22017316268461   -1.76035905817624
O           0.78816073397997    2.82854715431122    0.36721280787880
H           0.42038432495623    3.67931908914382    0.12347366811684
H           0.91952914688737    2.33333029426197   -0.47001404476098
O          -0.82323013164437    1.01458529179696    1.50831997592701
H          -1.25047659469893    0.71486242689174    0.69473584163158
H          -0.22402226288119    1.74740285961220    1.23732259834219
O           0.87626058157624    1.22553545950473   -1.80433026411036
H           1.51442282750661    0.53021810660404   -1.62354772141655
H           0.00436102531887    0.81686320485656   -1.67624336331894
O           0.59904102712455   -1.05782866719585    2.06863580834377
H           0.86838395299927   -1.20102534070639    0.69801096613102
H           0.09462003249200   -0.18485699650277    2.03346495828632
H          -0.07398741113204   -1.73449643765133    2.20943246177906
