    19
        -40.91040960
S          -0.51512758210693   -0.43479772507424    0.36586956313408
O          -0.14126414696171   -1.39340823762775   -0.79177016739843
O           0.37577040232718    0.70505954860035    0.28443632713132
O          -1.90387472470349   -0.14448127601530    0.33743101261383
O          -0.14893667889412   -1.26729327989605    1.60820125951242
H           0.83635815576223   -1.35139075151393    1.59729486976580
O          -1.11664536177592    1.84529097598011   -1.69472213601150
H          -0.44759966505418    1.62371711465292   -1.02821565039687
H          -1.84541257348898    2.24128671130461   -1.21021859580642
O           1.55615171964593    1.30606340618702    2.79955695630855
H           1.09051658623142    1.31324527125980    1.95570590354599
H           2.24569219773988    0.64232513095937    2.72813167117148
O           2.34812889937018   -1.05214812804011    0.86328447641531
H           2.51258181995813   -1.65955165877926    0.13762934988453
H           2.00673040600166   -0.23201747802680    0.47254846834245
O          -1.84014362357101   -0.60002653733253   -2.48064519641318
H          -0.77665980616256   -1.19758588535833   -1.57449577687319
H          -2.64036225242101   -0.69773250815974   -1.95447957381514
H          -1.59590379190001    0.35344531688642   -2.41554275111324
