    19
        -40.92078066
S          -0.13925752494863    0.79152232916522   -0.66565674131397
O           0.68826554174315    0.93914033814540    0.51383707331178
O           0.55051126009768    0.94546275360214   -1.90122007907727
O          -0.79940355473887   -0.61891206842038   -0.60096738506895
O          -1.34207819770534    1.72187597021579   -0.58160883658864
H          -1.98143137288159    1.34896802459216    0.13010025353772
O          -0.63143012985521    0.32017497941742    2.74757382474747
H          -0.22080377449277   -0.46732610632787    3.10915808841539
H          -0.04703636253088    0.63338863262708    2.02916400497143
O           2.73271306367976   -0.52885279210339   -0.44458286910022
H           2.09862736174412    0.02657514614108    0.04291789825998
H           3.23013538479906    0.07481278879749   -1.00122312926313
O          -2.74371986650011    0.52523679640562    1.15457991233789
H          -2.10429880798615    0.47729673542531    1.90296151839151
H          -2.75591845670444   -0.34893143828919    0.75271719371564
O           0.96214775570628   -1.82799764341712   -1.95688397458448
H           0.96079792188736   -1.21783264583009   -2.70239630083756
H           1.72838402196585   -1.55286981783085   -1.39977161045078
H          -0.18620425308946   -1.24173198244223   -1.12869884137888
