    19
        -40.90929584
S          -0.78775146378686   -1.29633356440402    1.22859717692023
O          -0.87044318326790   -1.81189691108615   -0.09541503655314
O           0.35013042370296   -1.61546823377185    2.03291838097665
O          -0.97278317767970    0.22633747126221    1.21637295153837
O          -2.06547591465842   -1.80584733143129    2.01097306553319
H          -1.87108158226139   -1.76370596558470    2.94520077139723
O           0.01429389350559    1.35820962553497   -2.45903421156442
H           0.83130902946708    1.07892630718320   -1.98573406103609
H           0.05352301424597    0.93879252342167   -3.32048047512065
O           1.84643462059140    0.55611892119728    1.42971461865050
H           1.10655336651334    1.15281965745577    1.57339405493695
H           1.53061154569881   -0.31502504252105    1.72211560043758
O           2.23548786602029    0.53864392877301   -1.22569640288834
H           3.05469149041206    1.01454726859827   -1.37317394164726
H           2.12612547441027    0.48667386161869   -0.25050083550279
O          -1.98465679702811    0.43606212655026   -1.02194570683410
H          -1.46317377655252    0.45176786561789    0.29555450357383
H          -1.29363527523341    0.88572476405803   -1.58236610905837
H          -1.84015954399175   -0.51634729290480   -1.14049433390369
