    19
        -40.91907731
S          -0.99077509972762   -1.11085024584019   -0.75065734226113
O          -1.13320957150604   -2.30888098185519    0.04316143746214
O          -1.58946407105564    0.06681951783645   -0.16588214174707
O           0.42155825119355   -0.85925254796879   -1.10834919182562
O          -1.72761282700840   -1.37160466485064   -2.12730475653376
H          -1.59481808654378   -2.29807012380228   -2.31020212525465
O          -0.04007513765569    1.82199983439225   -1.38492013143253
H           0.39520172829809    1.05799666330845   -1.78548610367568
H          -0.82376894988205    1.42360316545445   -0.95779567729913
O          -0.59013850524993   -0.92279327068905    2.20226221844008
H          -0.83423751283074   -1.66085088376538    1.60010892212538
H          -1.18906190443390   -0.21130258896077    1.94067666769641
O           1.46896681186976    2.20748541993171    0.70521622544850
H           2.26947729163193    2.66125260768321    0.43534742339482
H           0.85684368233498    2.20408357700394   -0.08736557555607
O           1.55560880338864   -0.29743961584361    1.02600328250039
H           1.18571719720136   -0.59449371708003    0.08346900956340
H           1.58929396776092    0.74119648873303    0.98103544660436
H           0.77049392229454   -0.54889865377600    1.66068242224390
