    19
        -40.91833152
S          -0.87110445689631    0.77215109403987    1.27468139646028
O           0.48636246820717    0.26752163001645    1.34286789902424
O          -0.97632482014807    2.15471813663930    0.87942502816266
O          -1.72371337203401   -0.09995976988859    0.45172653203463
O          -1.45065568297963    0.66948517294091    2.74484760739691
H          -2.23418441821525    1.20961944579448    2.70858543447453
O           0.55712597926526   -0.05083451009231   -2.45710458140314
H           0.77494573966477    0.71775015688635   -1.85883286876148
H           0.00736434600924    0.30632528913485   -3.15695661351785
O           1.18766633868995   -2.17039810185335    0.81203684632028
H           0.95938210981295   -1.28019238078762    1.18353972034463
H           2.11388510821718   -2.13249571058460    0.56476333903635
O           1.02921579007988    1.92247256821788   -0.80596254522238
H           0.23148504256305    2.17115054482132   -0.29204690363067
H           1.63702712896648    1.59431811851609   -0.13688611430273
O          -0.58612498348142   -1.75456362766216   -0.96027286453185
H          -0.11848165439672   -1.12877098355269   -1.63215334716448
H           0.13653805489353   -2.08825773625097   -0.31553608903735
H          -1.16040871830353   -1.08003935640306   -0.34672187563494
