    19
        -40.91328332
S           0.00156006263149   -0.32010155761464   -1.72552137642736
O          -0.36181842785743    1.00787418529125   -1.30532168668685
O           1.18176489329973   -0.80632743632232   -0.90163581266725
O          -1.02165963160754   -1.30647421971618   -1.74966792656078
O           0.57606057331766   -0.18911290428501   -3.18753666641953
H           0.88747215236145    0.70651848778499   -3.30186807344325
O          -1.34337175750420    0.68623526745728    1.27488089425134
H          -1.59215520629001   -0.25713330500344    1.23876179691943
H          -1.16775071841710    0.94667565492894    0.35981238269079
O           1.01522956471139    0.72719401930220    2.47189218274897
H           1.15020563195862   -0.17981846062290    2.75217406182062
H           0.07524360946117    0.78266296072212    2.16493687534526
O          -1.79771316369828   -1.94443155003758    0.76067597354262
H          -1.50928377919394   -1.86597927727563   -0.16567722060724
H          -2.67954114655254   -2.32160745093215    0.73823833264546
O           1.96800540500789    1.30242397624536    0.12997564703914
H           1.62500085913391    0.04566475280347   -0.44977940789786
H           1.23779609978987    1.84037621168243   -0.20280796465991
H           1.75495497945193    1.14536064559266    1.09846798836780
