    19
        -40.91892607
S          -0.28845228226726    0.63096548720881    1.25602503539409
O           0.94650905215604    1.23789817544176    1.70370447419807
O          -0.75368750405469    1.23345373545537   -0.00752245652515
O          -0.25305565155666   -0.80728286654889    1.16062020371045
O          -1.39758655691599    0.99015480559354    2.32422053191686
H          -1.23132077353522    1.90233467521535    2.54334720581053
O          -2.42516095983621   -1.00219917729420   -0.43213124646838
H          -1.87233583260269   -1.00892017452014    0.36721994170818
H          -2.48745479234087   -0.07445929409667   -0.67763029109090
O           2.65325373047646    0.48726272621145   -0.10480789510483
H           3.31194332921967    1.17984802917075   -0.19166775398855
H           2.09101805452063    0.73303583732489    0.67418378353710
O          -0.12420168827617   -2.06118636502580   -1.28318186691528
H          -1.09261695425640   -1.89107178749741   -1.24462550571039
H           0.13368881297207   -2.08346114382320   -0.34788494412069
O           0.72328284698369    0.24730549748473   -1.73959822433494
H           1.60415284672665    0.31254086523345   -1.22182696446738
H           0.41341569108034   -0.77077527402112   -1.67431518070161
H           0.04860864168392    0.74455625802253   -1.10412885679225
