    19
        -40.91893431
S           0.83169166360756   -0.91288202580268   -1.22057773175473
O           0.62856055820745    0.51073116981927   -1.40395341467610
O           2.09944382802028   -1.28056794335745   -0.64256708528523
O          -0.30050254432117   -1.51999026590919   -0.50428466426686
O           0.80068104222049   -1.54724235941982   -2.67536382230242
H           1.30244303495937   -2.34984499058404   -2.56929909067624
O          -1.54487879329521    1.81648013390991   -0.87352876701226
H          -2.06502250009978    1.87855245333521   -1.67673527447455
H          -0.67240272054897    1.42352930880296   -1.13595594288872
O           1.77162815584754    0.65214714519276    1.12398920336329
H           1.60274579874771    1.32928723796727    0.46201306744582
H           2.03346270905941   -0.13294179515269    0.60131015986260
O          -0.33742067071001    0.28023794967899    2.63735446140999
H           0.49689335930702    0.48071390666870    2.13348088051053
H          -0.15415270130009   -0.50696709943441    3.15393460337682
O          -1.92463514732005   -0.12878806350891    0.71182270401534
H          -1.91200287282189    0.72518136443322    0.14481978661557
H          -1.28256435421203   -0.79013995668357    0.16757416780909
H          -1.37396784515511    0.07250382962238    1.56596677881650
