    19
        -40.91062341
S          -0.69374341790540   -1.31324072306850   -0.10593486250023
O          -0.19522503070146   -2.25715721748471   -1.07812036720563
O           0.29883393870086   -1.07374586451735    0.96325320034746
O          -1.12760425929352   -0.06412755303732   -0.69382860547917
O          -1.94117749699371   -1.94597619422656    0.60639698397584
H          -1.63049744415247   -2.75081511291617    1.01257178349923
O          -0.18097992800085    2.20015469017825    0.11922455962191
H          -0.71329871823676    1.40590545985271   -0.14761982253088
H          -0.44765213197461    2.92292387240606   -0.45132698519457
O          -0.86055024007390    0.80886535473567    2.68033937722211
H          -0.70537089310643    1.56890104794713    2.11306150940744
H          -0.48051546698512    0.04866125223970    2.22234198697771
O           1.81299644725308    0.60656996935316   -0.00317756954583
H           1.18626545655168    1.40408745621638    0.06770479733139
H           1.27640898066437   -0.14981144468398    0.53460811785076
O           1.26608250227841   -0.44413837955938   -2.24141241715728
H           1.73886581053265    0.24990841740852   -0.97368167242259
H           0.81355097915359   -1.26151691781479   -1.91483886608976
H           0.58361090221479    0.04455188685194   -2.70956113796714
