    19
        -40.91793100
S           1.42745194479192    0.62471116478148   -0.81248249852702
O           0.10442936055401    1.08296004973818   -1.26620554268349
O           2.11569621858149    1.63901910504094   -0.04747575074576
O           1.33306880189580   -0.65244683509689   -0.13575418579819
O           2.26715999814293    0.37309384162330   -2.12852962594989
H           2.46344329913920    1.24644683942522   -2.45668630973090
O          -0.62958631546549   -2.24727377298767   -0.79017335195492
H           0.13431930842255   -1.64012223027675   -0.64306416208580
H          -0.32725802405353   -3.11652546928194   -0.52038975176846
O          -2.49825337536368   -1.00846490836791    0.55463554248503
H          -1.81599630193498   -1.53970034744239    0.05945544022354
H          -3.26405626170603   -0.95622339911693   -0.02080036093253
O           0.79574625592952    0.89615749411568    2.09058361196245
H           1.40108379597296    1.36515675624313    1.47272846655992
H           1.00885736024043   -0.03418720218463    1.95077998446213
O          -1.32250727956283    1.23417326888776    0.73190704015485
H          -1.84991537716772    0.34318342832224    0.72405490653629
H          -0.56705272640639    1.14620830426553    1.42792669327929
H          -0.77663069225138    1.24383393192409   -0.19051013515374
