    19
        -40.91907693
S           1.49491692991257   -0.29206118137100    0.67786951638536
O           1.24017406776105    0.64497654682356   -0.43677527147005
O           1.64782145978953    0.40369696791436    1.93418532666392
O           0.50724435840038   -1.34651732210427    0.69673867134357
O           2.88824979508646   -0.96573924651180    0.34447302620755
H           3.54406579672190   -0.36954847372050    0.69652596345933
O          -1.01172471647923    1.59366998392549   -0.00577309621288
H          -1.60704367819981    1.02375861397835   -0.64032891107563
H          -0.02278555690538    1.30794298857641   -0.23783025061383
O          -0.03059857914833   -1.29663655621920   -1.88665078589277
H           0.09346421598459   -1.62865785568170   -0.97563682883526
H           0.61424254498984   -0.57934810900589   -1.94162174180466
O          -2.24242652420263    0.04860916813920   -1.58165540083473
H          -1.47848727060362   -0.57482320597569   -1.75667917655710
H          -2.52122181769232    0.39127734445711   -2.43277787337758
O          -0.95857313252117    0.41291127955694    2.22619239969909
H          -1.02671570168655   -0.51722504461319    1.97397361930344
H           0.00275668706198    0.53548793246861    2.39279026445786
H          -1.13335886879174    1.20822614943920    0.95298054881498
