    19
        -40.91898050
S          -0.56335990768785   -1.52959959026335    0.07832494928481
O           0.20044835148511   -0.94500733170216    1.19459241848409
O          -1.97343330435907   -1.60098663390749    0.35690787954149
O          -0.23439393098515   -0.84762401174938   -1.16321674002720
O          -0.02939517827914   -3.01232721469885   -0.07243225729102
H          -0.57688591736264   -3.53679308137372    0.50588168241180
O           1.53200329070848    2.24563729772801   -0.18988563793587
H           1.27710415783611    2.58537847417928   -1.05017917632592
H           1.95733634782917    1.35574913202433   -0.35256491476985
O           2.26862380185494   -0.22761430884228   -0.57700538057163
H           1.42155542093017   -0.52552496218288   -0.96881278836443
H           2.29485580250359   -0.64815013984769    0.28789503736821
O          -2.13267379845257    0.90210920170412   -0.55830090579108
H          -2.59762671428540    0.15185222740924   -0.15084404653599
H          -1.50270714428767    0.45471362852692   -1.15378630885597
O          -0.40962356910643    1.45692924545648    1.21798675522140
H          -0.12768390936522    0.44629694412391    1.34827566661600
H           0.38960284855920    1.88566653134436    0.70040484579352
H          -1.19374664751193    1.38929457206564    0.54675892174586
