    19
        -40.92315431
S           1.23653100746461    0.87036937900869   -0.77199723061382
O          -0.01067142555164    0.46867413880589   -1.42549877841770
O           0.95995156058479    1.85294224365182    0.27920184615037
O           1.99779059853192   -0.26313638930923   -0.32031679179271
O           2.09557784421188    1.63813452468692   -1.84555520880489
H           1.70751186931185    2.50752571980812   -1.83862427947104
O           0.55871299946958   -1.42651559302079    1.53983452058076
H          -0.01936345833508   -1.86403774633956    0.87857879166756
H           1.30612532508416   -1.08784352656670    0.99633581419824
O          -0.75381720099283   -1.98510478952230   -0.72868164830686
H          -0.42336680666411   -1.13799409475120   -1.10221380336126
H          -0.36694149126895   -2.67965655232210   -1.26354061138992
O          -2.25018851877290    0.43558134004221   -0.00174838180509
H          -1.54522049422247    0.60851473527027   -0.66391771856919
H          -2.47139179645068   -0.49546070284340   -0.11063900270409
O          -0.58561037924225    0.75990034091424    1.89129699420998
H          -0.12163761157697   -0.20318982026363    1.89649129655713
H           0.08215378577280    1.33181715467674    1.32715292535940
H          -1.39614581726265    0.66947963818416    1.26384127644202
