    19
        -40.91521659
S           0.28447544811731   -0.71059117525224   -0.10092757029158
O           0.40203959156865   -2.05975483317642    0.35280322610561
O          -0.70465107170799    0.01615388037197    0.81983791204954
O           1.48250267067084    0.04951998076369   -0.28982848661814
O          -0.46014198844890   -0.69316268106342   -1.48062522588177
H          -1.23236844490942   -1.30201154902038   -1.36799324362453
O           1.75729706426810   -0.60959453448670    2.40739523808896
H           2.17345889042864   -0.24324574085161    1.62287466882773
H           1.39873997389471   -1.45940542974710    2.13968232512503
O           0.68925497568702    2.06915349515503   -1.85645913551032
H           0.14006141755606    1.63288094478758   -2.51188282862375
H           1.19880463871243    1.35994301428852   -1.42386345473936
O          -2.16379988070392   -2.35467214556428   -0.42598494049366
H          -2.67288786472520   -1.90452020913902    0.25356457669178
H          -1.35478681273349   -2.67478025851232    0.00420734802551
O          -0.45280234367970    2.50759725802337    0.48271696826652
H          -0.65239317167715    1.04246132071361    0.73632076959268
H           0.24412707694939    2.80782605111086    1.07210423591409
H          -0.07693016931182    2.52620262151969   -0.43394237287243
