    19
        -40.91505813
S          -0.71842461895496   -0.92260785572271   -0.94113738790998
O          -0.23981767496353    0.51299578939164   -1.25942764761123
O          -0.36976024876942   -1.22846990868310    0.43137098453094
O          -2.08519969557991   -1.07297861208890   -1.28038096133585
O           0.19380630953670   -1.77055232678998   -1.86229975355658
H           1.09452524353017   -1.71341393105643   -1.47249018322744
O          -0.78083532733227    1.01341457054543    1.94510358145956
H           0.10939048356015    1.36489117247792    1.76938092800553
H          -0.72856358738296    0.08198413740968    1.68098527960111
O           2.16947033438214   -1.48233125204941   -0.10704618981365
H           1.32000432780270   -1.40691987910948    0.37614423253798
H           2.60768387775311   -2.27292784495840    0.21614703806965
O           1.67030999621842    1.34990861043541    0.67759082173645
H           1.20706806724731    1.37547423682697   -0.16780303761182
H           2.26732388705731    0.59763320848670    0.62194298776067
O          -2.12259122423960    1.72955500772797   -0.17320938407414
H          -1.75209136042370    1.60623381026224    0.74757307245343
H          -1.00243068098442    1.14011680957548   -0.91834864830572
H          -2.83986820440148    1.09799408511479   -0.28409569112881
