    19
        -40.92136407
S           0.53841916863076   -0.80019494181197    0.99608190148599
O          -0.07617415113504   -2.04680402866161    1.37976451823122
O           1.05971347059854   -0.83441990672763   -0.38175594745747
O          -0.29577510430380    0.36242239143220    1.20155018156946
O           1.81857091988080   -0.60890632510275    1.91555628224200
H           2.09289284531132   -1.49783459054571    2.12250545604882
O          -2.26484655924575   -1.37604075342404    0.07435584678233
H          -2.62113378394314   -0.70550842149129    0.66385895568177
H          -1.53107886005898   -1.79799573704337    0.57645616452047
O          -0.71890744719911    1.98613325657557   -0.81074097277308
H           0.23175123803242    2.18453321150544   -0.96114972703360
H          -0.71353480393411    1.58950562549866    0.09042266907214
O           1.92310234627343    1.69681524585727   -0.61625348846582
H           2.29485653394568    1.93847274069923    0.23374529046340
H           1.77431984258273    0.73303642630412   -0.58158498748791
O          -0.93118327730313   -0.27485733222617   -1.80184375626858
H          -0.04098732161743   -0.59290521338096   -1.40016112592727
H          -1.61291906123884   -0.73517693849273   -1.19185697965565
H          -0.92708599153560    0.77972528534579   -1.50895028692117
