    19
        -40.91359126
S           0.22845398719457   -0.00745931137141    1.96672206654967
O           0.73017746086587    1.28767208377488    1.36208690949234
O          -1.12220616714761    0.11554263216390    2.41774594145046
O           0.48035115048648   -1.11917697167063    1.08861487796987
O           1.16719240726756   -0.17785819384982    3.21433110068670
H           0.87543296441742    0.45669409718885    3.86569958436056
O          -0.56613478726348    1.63810141606448   -0.69944540236781
H           0.08203076919786    1.44608364739687   -1.42728345964042
H           0.17194148466335    1.52651050658923    0.44843489371071
O           1.10441481058649    0.76325388406285   -2.53431928218189
H           1.10408758475300   -0.17732850354999   -2.24517130716288
H           0.92654378554285    0.76388144737135   -3.47596067351139
O           0.73280143285965   -1.71488897061722   -1.58915081835958
H          -0.20842315580770   -1.89456686911938   -1.66821291389347
H           0.90157422340710   -1.62917568469311   -0.63826043649548
O          -1.85458510862120   -0.66302631726966   -0.19753307760829
H          -1.08707686303540   -1.01536064072509    0.28436806464862
H          -2.49824305105120   -0.45845049951311    0.48655640684687
H          -1.16833291824652    0.85955224782886   -0.65922247453283
