    19
        -40.92003350
S          -0.57300331204599    0.66415981762159   -0.05543517557264
O           0.12244844141497    0.16907242956202    1.10894412131614
O          -0.21278383654708   -0.03162662510006   -1.26487110083365
O          -2.08355456538106    0.59122732093422    0.17987729002734
O          -0.35189613151320    2.16975941220807   -0.21533136030225
H           0.63704549175830    2.37806439157314   -0.36505612015640
O           2.42936233363230   -0.12546039312087   -0.24820557965916
H           2.01636121527528   -0.47200677741536   -1.04560874408057
H           1.74058664529128   -0.18712693779080    0.43654571821727
O          -1.11831782751081   -2.49640836376105   -0.73065047361632
H          -0.71869388154204   -1.65778078720505   -1.03203770731817
H          -1.69993492848141   -2.78843710746182   -1.43554732210999
O           2.16139645409794    2.48307300054588   -0.44979742146994
H           2.43527198704216    1.52857649333834   -0.43886250223102
H           2.52078120462334    2.88102596934522    0.34696818750345
O          -2.04918454898815   -1.51488112967460    1.57218950887810
H          -2.24549853005693   -0.21879793967489    0.78965189540715
H          -1.78115708872623   -2.09803794555754    0.82684058209011
H          -1.22922912234025   -1.27439482845734    2.02038619405182
