    19
        -40.91080937
S           1.54723357956021   -0.23418009444473    0.38574992559636
O           1.50183126321758   -1.01656679944956   -0.90804608153028
O           1.65216895485960    1.17321352558366    0.11589016517930
O           0.48928814616108   -0.63352048472340    1.26316119049374
O           2.90118283316730   -0.70128159843802    1.02033970124603
H           3.58635909796935   -0.22832532881347    0.55409277507622
O          -1.75285072168063   -1.82157571223225    0.29191449392200
H          -1.76812526108422   -2.75139525373722    0.52430922637389
H          -1.05956123865855   -1.40706348422034    0.83540480756666
O          -0.68819810066181    1.81574605313787   -0.93741593628682
H           0.19063747149938    1.72174970861522   -0.51278892040502
H          -0.69046532281894    2.66406247713768   -1.38517749772092
O          -1.34264995242558    1.46910614100047    1.91492572845628
H          -1.46384717776710    1.68566646743149    0.98503859961690
H          -0.70173169972188    0.75060344908383    1.93386093421859
O          -0.74008841613946   -0.68346288184988   -1.84473447352371
H           0.50838473354330   -0.90304009218534   -1.40393664614895
H          -1.28695656320424   -1.17209439754283   -1.17798491624799
H          -0.88261163582036    0.27235833565519   -1.65460308588101
