    19
        -40.92079115
S          -0.90713167884705    0.13407854739536    1.16853702358876
O          -0.19553081353159    1.20111367176347    0.47839866675039
O          -2.26855139083431   -0.04636942758370    0.73482666712585
O          -0.13950483595403   -1.11247011659953    1.14363246066968
O          -0.95457782892686    0.58571322847250    2.68479983776139
H          -1.53729319453473   -0.05152525869968    3.08581812927912
O           0.31090700813840    0.23990866415440   -1.95596578346623
H          -0.49049123959328   -0.32149881310842   -2.07740235631570
H           0.06533447956521    0.84158236104729   -1.22420730276676
O          -1.94755950437073   -1.08960615824522   -1.67246996874656
H          -2.76175264673198   -0.95684525402565   -2.16162168001031
H          -2.12654812919235   -0.78497690052727   -0.75653986867925
O           2.41280836166092    1.17446895751906    0.75266792432043
H           2.77191066235428    1.92676612790674    0.27792584868783
H           1.43844627078360    1.31696405710919    0.80938505701523
O           1.79262457385494   -1.02458025063986   -0.40101345664272
H           1.01116993058082   -1.21018857126134    0.28160485510734
H           1.25349118394852   -0.57778772267270   -1.20554849863004
H           2.27224879164247   -0.24474716201242    0.03717246494936
