    19
        -40.91329949
S          -0.58938522648360   -1.48691841684784   -0.58899598659426
O          -0.36807757062942   -1.36319316345740    0.82528850802535
O          -2.03710172891569   -1.14507266598864   -0.90558152806232
O           0.33413056436553   -0.79236400237532   -1.42802952457202
O          -0.50977337549437   -3.00484277707788   -0.97686771909375
H          -1.05419091430219   -3.50482025347221   -0.37081403415431
O          -0.28109586206167    1.85385433862345   -0.78846595498503
H           0.01802958006823    1.05771656618128   -1.24903719616759
H           0.42564224701526    2.07620684601657   -0.14204346250927
O           1.72036073713930    2.08686860600378    0.98441477205864
H           2.49978718859440    2.61570186653702    0.80819424820846
H           2.00494679704898    1.14673589608593    0.94730221069681
O           2.21876409626571   -0.52584506128309    0.58526209207399
H           2.01544823500431   -0.59632709163966   -0.35576753846270
H           1.43876861852317   -0.89684160881350    1.02203464122342
O          -2.23198614843097    0.84028663095966    0.55430889496836
H          -2.26608050455481   -0.28878199677744   -0.31331450081104
H          -1.77310293258595    0.52120301877869    1.33910588091245
H          -1.56508380056336    1.40643325841284    0.05300621726582
