    19
        -40.91836430
S           0.03152007127686    1.15841679553633   -0.21340517168530
O          -0.05534027579649    1.35826174928832    1.19328783003550
O           1.41936640962946    0.63254811352632   -0.63217740597081
O          -0.96477308546856    0.27631270893590   -0.77986664382629
O          -0.02133025851659    2.51780776146117   -0.93788168046058
H          -0.06153547512788    2.28881193095283   -1.90062498501682
O          -1.22362840026725   -0.40606345567666    2.91641230353498
H          -2.07646617800019   -0.02889896436063    3.13929973365164
H          -0.72762065687130    0.29265409799271    2.45643338100164
O          -0.72455483363897   -1.96803446887177    0.77045661103313
H          -0.97151338414065   -1.62090818183403    1.65122492972857
H          -1.01098523871083   -1.28653368990758    0.14138028073409
O          -0.16326871297370    1.18736304461953   -3.16539615898285
H          -0.67306326243923    0.60689994850076   -2.57497217224091
H           0.68358845531425    0.75964938806164   -3.31645952500816
O           1.81420339979050   -1.52980740221806    0.58456359287256
H           1.66038400815507   -0.22526308254856   -0.10587822743229
H           0.85806079134289   -1.80377555866954    0.74182913189484
H           2.20695661646388   -2.20944074477926    0.03177419611557
