    19
        -40.91790589
S           0.74478094865335   -0.50213440497387    0.49809118290271
O          -0.17147914258821   -0.91127931063855   -0.53552907501353
O           1.84916373805474    0.29138664401550    0.04093216599397
O           0.00700791281823    0.21428770094165    1.61393617509480
O           1.28295261043322   -1.77520454805018    1.22260154398121
H           1.79450640104057   -2.25021880341405    0.53471418026710
O           0.24719099881090    2.47633745129937   -0.29479564148393
H           0.96203842323575    1.82122544933718   -0.27789912332141
H           0.19189356847096    2.83437160418403    0.59375935832758
O          -1.93412647079699    1.08608354007365   -1.16056722640478
H          -1.29187114859574    1.80096107558165   -0.99503797208003
H          -1.38525134620851    0.30271474805009   -1.31648233472265
O           2.25920130287059   -2.18039497794134   -1.18141003678558
H           2.66927691824834   -1.30778545276228   -1.18285569845264
H           1.38780058386083   -2.06598385159726   -1.57641972570377
O          -2.44994864572265    0.14892057227757    1.19205016982980
H          -1.04626376290503    0.17554365474452    1.51340929810189
H          -2.42090668168444    0.60444635000029    0.29328798347576
H          -2.69596620799652   -0.76327746112898    1.01821478599442
