    19
        -40.91790586
S          -0.28687063675594   -0.95781787985891   -0.23470089391145
O           1.00689837082379   -0.36193241568461   -0.02008155916333
O          -1.02485772621381   -1.23710593171649    0.96354232025146
O          -1.11707936319165   -0.10837531081555   -1.17919662874657
O          -0.10239463800951   -2.27482570027525   -1.05130331628091
H           0.40746515693624   -2.86276970197096   -0.45563485741404
O           0.81153384592337    2.33150583389633    0.41948518684742
H          -0.04633032692264    2.26575623892861    0.87842894738062
H           1.19111584496694    1.44288511978254    0.49358325332854
O           1.18759685432116   -2.92278476541186    1.14240609760819
H           1.73063254493039   -2.12889075520854    1.08581609640381
H           0.42407106674592   -2.68574846528694    1.68138208593640
O          -1.58990274016089    1.40906682212572    1.32817052124861
H          -2.33892716627247    1.54493167946458    0.74400899811693
H          -1.47214498470836    0.44898212044027    1.39716104228966
O           0.24863369758402    1.79072079225069   -2.04434924326747
H           1.07162151832776    1.43293459985325   -2.38700742461838
H          -0.57256886289995    0.68666004122008   -1.61711190051782
H           0.47150754450125    2.18680768824572   -1.14459871549017
