    19
        -40.91912329
S          -0.10564929887709    0.23645990674293   -1.31115407361724
O          -0.31792747258824    0.93245184204700   -2.53983104287261
O          -1.38064058674881   -0.50932379307244   -0.93582857664768
O           1.03016883511238   -0.63081977443417   -1.22556490095217
O           0.06536859416734    1.29653433566984   -0.16003597639941
H          -0.56474473960093    2.02722396934909   -0.39794401410379
O          -1.52268142164512    2.94540666786225   -1.35024062674860
H          -1.18780224603758    3.80172501918015   -1.62787536759136
H          -1.32433653538352    2.31620624110619   -2.07038334686837
O           1.78558870305871   -2.06420343430104    0.87280459576246
H           1.59859866165594   -1.54694596905092    0.06234469070426
H           2.55660595463510   -2.59881637816694    0.67847035818879
O           0.56996403117283    0.02658543551991    2.33644151418659
H           0.54037374143055    0.67889649044972    1.62607589501427
H           1.29364084218211   -0.57835677235749    2.12005511421905
O          -0.96300057016804   -1.80048033295155    1.17751433022445
H          -0.17978663996500   -2.34877393683000    1.01866452739282
H          -0.63520420500461   -1.10514151289079    1.79704299643977
H          -1.25853564740068   -1.07862798386783   -0.07055608631517
