    19
        -40.92120510
S          -1.05001085645507   -0.56129008641316    0.69364050983705
O          -1.80685878098654   -1.65503643294860    0.14963238190303
O           0.30923796979950   -0.93400744440602    1.08574122533124
O          -1.04886066981126    0.65150229252502   -0.10857638980523
O          -1.77367852747016   -0.13662820823603    2.05317720874516
H          -2.19024400909039   -0.93775957085316    2.35638055329221
O           0.43389022511312    2.31155095131597    1.27098150269587
H          -0.26873240033699    1.83934892325738    0.76739358116285
H           0.21669807621544    2.20181321794963    2.19861097454085
O          -0.04890415003353   -1.93428970034151   -1.83968664562386
H          -0.68344371103068   -1.90452537319278   -1.09783340194905
H          -0.44352323493991   -2.49748397253535   -2.50886453397241
O           2.03193737688748    0.61155814172451    0.21223988635707
H           1.62532845320396    1.43457017221666    0.64361936305621
H           1.42199203193244   -0.14512435445976    0.61699742065047
O           0.85425136977757    0.56655029896037   -1.98694674550909
H           0.70822461409907   -0.39109196442210   -2.14253567988843
H           0.02157593880136    0.84999302984753   -1.56418191866035
H           1.69112030435598    0.63035007003347   -0.79978931219241
