    19
        -40.92003357
S           0.13628558580493    0.78205313408100   -0.37794248233735
O          -0.47000232695032    2.12138523907714    0.04743535942478
O           1.08722348534659    0.32059868869083    0.60163583759297
O          -0.92010980314179   -0.16909420828342   -0.63028592587592
O           0.84580116741270    1.15787524654480   -1.68054046493434
H           1.29182804306028    0.34036047885180   -2.10063918244560
O           0.77563568211433   -2.25808898891291   -0.52625094854142
H           1.28322058502893   -1.91888061356363    0.21793303460598
H          -0.03589352268156   -1.72116600010350   -0.54035283171888
O           1.77279047024359   -1.01680542931337   -2.61945487416459
H           1.50767093231676   -1.62622579128464   -1.88144574639040
H           1.26842564871039   -1.28468879363130   -3.39163307736231
O          -0.45336434354530    0.17612411856554    2.78943409758135
H          -0.05336038394034    0.67860001693248    3.50215246384732
H           0.20192955750078    0.15377869806320    2.06563178250800
O          -2.43965420914342    1.15335488758850    1.29584028289001
H          -1.33765471795706    1.90268334599642    0.55100496408949
H          -2.56650326391868    0.43958404581283    0.65909513241207
H          -1.89426857625381    0.76855192491862    2.01838258884101
