    19
        -40.92453847
S          -0.99388270397958    0.72214088514671    0.90167909814014
O          -1.73042658748786    0.27490380184006   -0.27483598310521
O          -0.46811375427528   -0.41617299470801    1.64742635082770
O           0.02916040140480    1.69468326621251    0.57942303622848
O          -2.02652168378857    1.45506069449170    1.84572969667686
H          -2.68842922966505    0.79853703525011    2.04264432350310
O           2.11623188321612    0.18141735505943    0.89290284547034
H           1.45968300214207    0.91816500043665    0.83326999459927
H           1.75829704874067   -0.38292150310385    1.58850965259471
O           1.49177292421481   -0.91229604363554   -1.29035409245621
H           0.74729671468385   -1.56018237686748   -0.94527196330907
H           1.89720779741133   -0.49679069314125   -0.41923172113071
O          -0.44755403163780   -2.15742056491896   -0.27248869065035
H          -1.23154928780844   -1.84471607748440   -0.73911470819703
H          -0.46186540916587   -1.64480734334564    0.57552315353213
O           0.01984553633184    0.98228749767508   -2.06337134637980
H           0.34347663245478    1.78192593490404   -1.63251135112565
H           0.96145632922276   -0.13024102959220   -1.74102969240633
H          -0.77608559210431    0.73642716579731   -1.52889858280253
