    19
        -40.91923799
S          -0.42782845906615   -0.85944890693550    0.15536063209479
O           0.90573314350771   -0.32340757942155   -0.46460465520289
O          -1.19204078141454    0.27711265957852    0.60975686129131
O          -1.06234109613718   -1.70609258384595   -0.79742775957216
O           0.06966307430915   -1.64713589362342    1.36555049905661
H           0.17455500206499   -0.96402425950844    2.13045569617867
O           0.22949746780036    0.30518763904304    2.94990949528492
H          -0.50236389221430    0.73654607710615    2.48755278541896
H           1.04611179456036    0.73177428578421    2.61007848050582
O          -2.03773412136559    0.92820619757943   -1.86365714749708
H          -2.79184893418690    0.34741122561210   -1.98890554673701
H          -1.81429937066727    0.86863199351642   -0.91755787269014
O           2.29975085261970    1.11110150024866    1.45190253408663
H           1.90308133112241    0.71223963184061    0.66170636160094
H           3.18228332353832    0.74473882497687    1.53495784789447
O           0.13623374395383   -0.23079823615957   -2.86134374283241
H          -0.20762127511328   -1.12996833549600   -2.90438832602756
H          -0.65043980697719    0.33933491713200   -2.68262064928465
H           0.73960800365710   -0.24140915743873   -1.47672552355588
