    19
        -40.92052665
S           0.65016047443069   -0.31632478834390    0.42350080547301
O           0.42644241801472    1.09935653635259    0.26678237054856
O          -0.34818279119076   -1.13652549414725   -0.21614974347188
O           2.03397591146991   -0.70824690017746   -0.10206387497106
O           0.74915470590228   -0.64688035683849    1.91551981898650
H           0.11464468460964   -0.00290193377010    2.40431015767082
O          -0.96871565425976    1.02932900660016    2.69855373430626
H          -0.68611699449121    1.71011682378264    2.07652171047104
H          -1.73198045774895    0.58155241907166    2.26714438357776
O           0.64144700516571    1.37869923518427   -2.40009576462765
H           1.25953235777156    2.09197318329510   -2.57269544535373
H           0.45961867258024    1.39710929207426   -1.44148377089483
O          -2.55943404158679   -0.44634158850073    1.15165254898401
H          -1.85574322878803   -0.71813832485600    0.53257145872840
H          -2.98487818356963   -1.25302437204482    1.44972860923950
O           1.31685360459415   -1.19770970096001   -2.47253358513029
H           1.08457431536705   -0.26570387792049   -2.68871398207384
H           1.91090599075950   -0.98305646646970   -1.08483319161922
H           0.48774121086234   -1.61328270216028   -2.20771625973867
