    19
        -40.91983412
S          -0.62410627935975   -0.00168860012353   -0.66254133764917
O          -0.92747627489999   -0.77227391783391    0.52383299882784
O           0.69786130629445    0.56583678908278   -0.65214980259360
O          -0.82298877983076   -0.86021647960672   -1.91053503920144
O          -1.66831986474592    1.10760721810483   -0.82987371086919
H          -1.29563590872742    1.93313358703164   -0.34665948583813
O          -0.42206623455083    2.82965988613078    0.53277567592312
H           0.43299144858127    2.52573438016881    0.20374907131741
H          -0.54561965803796    2.38007616261304    1.39891434323385
O           1.22416506867818   -2.40809044994481    0.37401027658445
H           0.37260751031573   -1.96353334564106    0.52765231296229
H           1.82196437800546   -2.08376316431215    1.05101234509941
O          -0.86103905133073    1.06313202903254    2.48921060848683
H          -1.69028166855257    1.04210683626432    2.97141921058959
H          -0.87693067926964    0.30031052592060    1.88078320214381
O           1.57983286428861   -1.59244255953789   -2.15095236860071
H           1.59575392709478   -2.10975990976479   -1.31551044749665
H           0.09736197705056   -1.23813934272993   -2.17133535981233
H           1.91192591898619   -0.71768964484759   -1.91380250310915
