    19
        -40.91907730
S           0.00865759349501   -0.96408708501719   -1.36031050278850
O          -1.01669637886185   -1.17848785961791   -0.36524158145095
O          -0.43431918355138   -0.23351944184872   -2.52476134117754
O           1.20755200621538   -0.34745054797401   -0.75403931498899
O           0.48097764182150   -2.39156700765714   -1.85546426190896
H           0.86064110681729   -2.24386806561346   -2.71772933097268
O           0.17067079423087    1.01723371922849    2.54171454285997
H           0.28519266391433    0.04133626353732    2.34821148367517
H           0.84185357561915    1.25316308016387    3.18464624372395
O           0.44169759570072    1.82713995613202    0.16371211446389
H           0.88056365631803    0.96313100612381   -0.25335153494507
H           0.31798198729195    1.60052294686493    1.17142979104177
O           0.61202003351313   -1.40908746504583    1.69788395661540
H           1.33063377971790   -1.25868289062591    1.07002403721139
H          -0.16338403341714   -1.52836356191992    1.11447502473261
O          -1.77339774934573    1.40105941042008   -0.97225429554254
H          -1.40433160084977    0.95492044023455   -1.76722334293411
H          -2.14084600756954    0.67279315650453   -0.45478746567240
H          -0.50546749086361    1.82381395577250   -0.26693421192079
