    19
        -40.92136397
S           0.14251644737335   -1.12978987838800   -0.79035914911673
O          -1.18482026876175   -0.65884636467115   -0.35664000312442
O           0.31525711879578   -1.03885270395268   -2.21882152145036
O           1.18981065858528   -0.49479401556816   -0.02244239255856
O           0.17525343047168   -2.67169712953419   -0.41279171795502
H          -0.15579693907028   -3.11089796003791   -1.19112000379607
O           0.82303714473563    1.53795818858249   -1.99659827674682
H           0.62804402157445    0.61231528998490   -2.26774121044459
H           1.70626385293436    1.50935187947122   -1.61825992140117
O          -0.91423321308753   -0.89991242254423    2.30331140566290
H          -1.15925245961699   -0.91114445889899    1.35884871310646
H          -0.40304393850668   -1.69690996172243    2.45378477032252
O           0.53104756176412    1.27937527635861    1.78937498114022
H          -0.04179156604597    0.66762261153089    2.30248695054474
H           1.05120759870669    0.66160472523245    1.22613888987175
O          -0.91299311198235    1.82625714271748   -0.14839982153654
H          -0.31160235569155    1.75108730617453    0.76302323782991
H          -0.24664204606219    1.91166694202345   -0.92112137754559
H          -1.23226190629544    0.85560551313660   -0.25267357272312
