    19
        -40.91793117
S           1.57649961488312    0.48817411339206    0.60208613259451
O           1.71669547158076    0.31579571579026    2.02978602084443
O           1.46169614293111   -0.80156491754688   -0.09765318729274
O           0.50201012049972    1.38339182803931    0.22555284717903
O           2.91320136144744    1.14495313322135    0.07068816911678
H           3.60787134411364    0.63364678798391    0.47685929788825
O          -2.05544471820883   -0.98162415406233   -1.54024431161685
H          -1.53958524093766   -0.17215519017837   -1.80762935811906
H          -1.96958615836474   -1.60360177830147   -2.26554840051875
O          -0.88524462720877    0.09391717299985    2.24174557850909
H           0.07698553249657    0.13540920307328    2.44360553344224
H          -1.04091780075508    0.89178335638722    1.72264228098098
O          -0.56765656144847    1.08331464576869   -2.13847505275821
H          -0.07256753044156    1.20069403485139   -1.29292915047102
H          -0.96640805777537    1.93484014000874   -2.32723698599982
O          -0.73495052334585   -1.73920763870628    0.49139727225613
H           0.25464162603056   -1.44153980001554    0.20676841671329
H          -0.93995003439281   -1.09110719265969    1.26659913383435
H          -1.33728996111026   -1.47511947003637   -0.30801421658381
