    19
        -40.90739438
S          -0.29129962064846    0.65762702543011   -0.86956926914207
O           0.64119797628958   -0.43315743280889   -0.69843511606235
O          -0.58103305953816    1.25867120480433    0.52848767182917
O           0.09491174351512    1.67858148317576   -1.77844522647478
O          -1.67109091713685    0.07696275404439   -1.26062040151671
H          -1.83940139043386   -0.65782761764408   -0.62671507430683
O          -1.28342745094084   -1.65776223259046    0.67765057272648
H          -0.38202058869577   -1.52295191247657    0.33298721493990
H          -1.32798239924159   -1.19224580981281    1.51820111936210
O          -1.63133039352644   -4.35419858854296    1.61369130038724
H          -1.55980339683308   -3.47146984173296    1.22769386421263
H          -1.91253887981191   -4.93891991160277    0.90844548061834
O           2.75553045383521    1.27865976514826   -0.56765750177256
H           2.17103257174919    0.50352035127286   -0.56518683108420
H           2.88620026023321    1.50183883713428   -1.49260478392796
O           1.13152531310496    3.11435544468760    0.48560179830104
H           0.86312087268701    3.56332406978279   -0.32223167898736
H           0.04747937508213    2.05880195159234    0.65944578444514
H           1.88892952019951    2.53619048009329    0.22926107647210
