    19
        -40.91966068
S          -0.13990744561857    1.60999856851035    0.56659973324124
O           0.59468800599976    1.82953946747582   -0.66966612845565
O          -1.55795896748029    1.33508342514645    0.28817806411257
O           0.44659913156372    0.59357791790101    1.40448014158899
O          -0.11095257502428    2.96355700933343    1.36978906774290
H          -0.49691969282883    3.58365937824695    0.75869917281260
O           1.89478009913670   -1.42205508423123    0.20301931757833
H           1.72254956501923   -1.24261345439075   -0.72848540493949
H           1.72056514054727   -0.58701034048724    0.66758570940622
O          -0.38958586669001   -1.99639161609614    1.39589553625677
H           0.50550100118528   -2.12398910496031    0.99647923231165
H          -0.28329515128993   -1.17107400721152    1.89697890363939
O           0.44460751344117   -0.35200946980001   -2.00292987293237
H           0.57256566558849    0.52636776846397   -1.53967678299243
H           0.37928055457078   -0.15592692738291   -2.93946017956505
O          -1.58761323498798   -0.98685565567425   -0.54564338564799
H          -1.70818176457898    0.00503256378083   -0.18058610654955
H          -0.84641555985472   -0.88775144197441   -1.22510170953569
H          -1.16030639864199   -1.52113900668798    0.28384468192625
