    19
        -40.91167197
S           0.04864022794697    1.24438757738874    0.94658229805043
O          -1.17383475635514    0.60662078922355    0.28143663023992
O           0.03561955442472    0.95117553371489    2.34367571961317
O           1.24390981208193    0.94276527321904    0.22223292786454
O          -0.21963404559856    2.77796714008043    0.74171773737588
H          -0.86160664053096    3.05916580401439    1.39087453761236
O           1.06674497387429    0.80772952359492   -2.47312114894731
H           1.16698989180759    0.97805257724996   -1.51986827153606
H           1.95311235844988    0.70738388379805   -2.82588154719682
O          -0.44854120716900   -1.38172706487988   -1.93026366281767
H           0.07656993242929   -0.64233324228476   -2.29574355197045
H          -1.27232652364731   -0.98764430964804   -1.63475851108672
O           0.83391338267831   -1.83226507586530    0.37727336339297
H           1.29767098638769   -0.98675946416688    0.40716510079376
H           0.43052482094835   -1.87273291316494   -0.52090181193272
O          -1.30991349053175   -1.37691666337205    1.75409616163113
H          -0.50705312505341   -1.79202061568655    1.32253630304227
H          -0.98164126345829   -0.94208663708820    2.55108999306801
H          -1.37914489870455   -0.26076212601263    0.86185774287990
