    19
        -40.90824063
S          -1.38504588610416   -0.06127683272162   -1.94905571528632
O          -0.11411362105470   -0.73742871505629   -1.94683994563746
O          -2.22650140593186   -0.53285703657683   -0.75993585318787
O          -1.33077512266573    1.35715694175922   -2.03993536816750
O          -2.22487911195765   -0.61602522235891   -3.15515706850642
H          -2.12756052337545   -1.56700094616328   -3.15239299584138
O           0.65994221637836   -1.44787517955937    2.29685643257587
H           0.72594887082345   -1.61786299098002    3.23760744228093
H           1.46734324671154   -0.95913927252834    2.03988975823169
O           2.60799482444987    0.31353086039741    1.56512041703106
H           2.21523713449382    0.62909598245295    0.73653673565288
H           2.78954250965847    1.09428452183574    2.09146357101260
O           0.99957210810417    1.21030920566908   -0.52408884924063
H           0.84367836468239    0.41338244070404   -1.06814691753679
H           0.56549914488825    1.91770882191906   -1.01321232301529
O          -0.94951386823104    0.35909168841143    1.18702746396633
H          -1.77872204798507   -0.17792191694756    0.12049312253328
H          -0.49958465646637   -0.39505253802660    1.63750045139005
H          -0.23806214642359    0.81788021785897    0.69626965174620
