    19
        -40.90224922
S          -1.59677313067902    1.69819959347755   -0.45045059425260
O          -1.36735995890573    1.13266419412881   -1.86775904462070
O          -1.77578120329134    0.61674040607297    0.47521181224644
O          -0.61183731178482    2.67366231618991   -0.14200425809413
O          -2.98793038425222    2.40965233807684   -0.61912946437562
H          -3.66184447623712    1.73171513534967   -0.63228378857390
O           1.93183177603916   -1.81282943453897    2.34124700290482
H           2.88733577134284   -1.74372763931198    2.36512514544493
H           1.61117735930356   -1.04586203510403    1.83773526521744
O           0.74571934955004   -0.33138360839598    0.27404715811443
H           0.63797672504602   -1.27710518309847    0.03438228363552
H          -0.14494173974758   -0.02026284769882    0.50905440767978
O           0.48809843659435   -3.03306039455397    0.33457584490362
H          -0.38016942953852   -3.28579287855108    0.65349154677506
H           1.04679422738903   -2.91853935593642    1.12458242886321
O           1.14570663123056    1.28345055892109   -1.79262327418813
H          -0.35205828392269    1.15855436249504   -2.02369271531249
H           1.16415614531725    2.14343354803686   -1.35655858986677
H           1.21989949656249    0.62049091439786   -1.06495118652511
