    19
        -40.92113549
S          -1.09060142985384   -0.03370161485975   -0.48562630404411
O          -0.27537673813950    1.15502893269369   -0.32247513631844
O          -0.31345645996447   -1.22141353082255    0.15234723106829
O          -2.39712093448453    0.04861750346913    0.06692903232063
O          -1.13032190853801   -0.42071298665016   -1.96080193939019
H          -0.20346157434911   -0.78332712883287   -2.20955807298478
O           2.18952809568175    0.96517828269564   -1.27826117765792
H           1.31679248300284    1.13160233106947   -0.86336829209023
H           2.34951710195703    1.69924715751216   -1.87459341901321
O          -0.10252021507730    1.36283351261657    2.36511083009693
H          -0.20432272275057    1.46439721899416    1.40160723256578
H           0.82992140748171    1.48438665780636    2.55628731384027
O           1.22868275306663   -1.28948318830133   -2.27242175950808
H           1.75025574982943   -0.50117606028780   -1.98155072385226
H           1.26620778529520   -1.91765253405875   -1.54507810419979
O          -1.37948906437380   -0.98532734371467    2.42579201684441
H          -0.93974930297615   -0.14050798709638    2.66615508579521
H          -2.23098284353728   -0.73106958697613    2.04724431395875
H          -0.66350220225500   -1.28691963526599    1.11226187256838
