    19
        -40.92135403
S          -0.78426453537723   -1.33807069659659    0.17605510137584
O           0.26345289820146   -1.57930625812738    1.16877221920699
O          -1.82782347285655   -0.47669112801549    0.68718631644639
O          -0.22717459821242   -0.87726055701340   -1.08595873191370
O          -1.44103776419337   -2.74096881108452   -0.12582519048806
H          -1.87461371086081   -2.95273856085744    0.69509978956627
O          -0.59015467884236    1.80728362033840    1.02154211437636
H          -0.61766035653610    2.04175688446631    0.06304741879919
H          -1.19717083714553    1.03154303924600    1.07741021518479
O          -0.89574777308200    1.67793159257368   -1.60009015986214
H          -0.67178442241941    0.72771456385035   -1.55909537695549
H          -1.81489873823003    1.72533474309159   -1.86866335028983
O           2.25430514912032    0.03410416115235   -0.98809128531352
H           2.87216871716027   -0.68968221998261   -1.10677141342083
H           1.35930288718390   -0.32604078451466   -1.18307671676903
O           1.51473467159165    0.56181918692333    1.39695470242920
H           1.05727871899004   -0.36845050240712    1.45893534786599
H           1.96675545779516    0.51353238141487    0.48628093331000
H           0.65433239563413    1.22818936478274    1.28628805535020
