    19
        -40.91339468
S           0.36974620313842   -0.15648939221877    1.71571543550212
O           0.73223754496018   -1.12539166156650    0.59314932718174
O           1.49397816988699    0.66116642270940    2.03012613486931
O          -0.87337450935939    0.48572895677796    1.40850065081383
O           0.09945176233975   -1.10262326890894    2.95080478741346
H           0.93078867430072   -1.26818393836445    3.39170223137793
O           0.65168721310266    2.24596476945700   -0.06188614014770
H          -0.17177940493173    1.94811086225772    0.34406808334391
H           1.31868559188765    2.12236632237254    0.62366059002879
O          -1.25413979792321   -0.30439109858481   -2.51244835035985
H          -0.28916826399353   -0.10396205254838   -2.43434505291981
H          -1.69267348309390    0.53795539453222   -2.64427650087759
O           1.24499775691344    0.31995866166030   -1.88128843001025
H           1.11184445681849    1.14202112247662   -1.36803679485919
H           1.51377378030340   -0.34680772415199   -1.24199876455035
O          -1.54119565509442   -1.56071773119197   -0.24546647428910
H          -1.90522550385081   -0.86976084198384    0.32657273225542
H          -1.52690890061939   -1.17980347089262   -1.17153628732660
H          -0.21272565477593   -1.44514133177733    0.17698281257964
