    19
        -40.92078046
S           0.89077449862596   -0.50913909593649   -0.19244540852803
O           0.18388736682575   -0.67883940552035    1.06026392237707
O           0.00925079373039    0.39155774481293   -1.10941255257159
O           2.19273343455385    0.05327591886530   -0.07125977082526
O           0.92396553885197   -1.82546814917957   -0.95785315924480
H          -0.02176894041933   -2.00923469264467   -1.31214367019537
O          -1.47409137344150   -1.96329214123446   -1.75988694226147
H          -1.95627925427603   -1.90737976889546   -0.90234853428364
H          -1.53956507466037   -1.09275222250264   -2.16431869217108
O           0.85798215598873    1.73686491119755    2.04254485432521
H           0.53490954736590    0.84025323398625    1.84278113936380
H           1.73641312828730    1.61893057906029    2.41149231782455
O          -2.34456504886805   -1.44636138103013    0.69317386082430
H          -2.90584388472239   -0.73252449638624    1.00118381577168
H          -1.43564176326386   -1.22906865646510    0.97988436174467
O           1.08182487463868    2.59324495235271   -0.47337368630197
H           0.93679377435435    2.50001178813124    0.49776239631611
H           1.99162399217322    2.31222291830281   -0.62021936102995
H           0.33759621419593    1.34769795310902   -0.96582489126282
