    19
        -40.91483133
S           1.01367594914942    0.96605882472009   -0.48798899975696
O           1.49699169501738   -0.26909911449195    0.07233737902424
O           0.98051807846818    0.87801554785082   -2.00729680076757
O          -0.22149048580212    1.45635852262484    0.02291306168776
O           2.11717804502358    2.05125020593546   -0.23778651392339
H           2.96182655416920    1.66927445056810   -0.46868953426099
O          -1.74141554484189   -0.28058477342208    1.58895192682259
H          -1.03311034761871   -0.54935243844492    2.20047106862089
H          -1.44229330796115    0.56176682896626    1.22222293130971
O          -0.89884395244732   -1.54568048957347   -0.58647175597416
H          -1.36920439005649   -1.22550285515092    0.22349306822340
H           0.03863691076634   -1.40524112281282   -0.40720769052224
O           0.71119097992247   -0.99379146983323    2.60169661564087
H           1.09749536213989   -0.72590961050657    1.75190190078999
H           0.91998238069771   -1.92300768702615    2.71639273429874
O          -1.40054955797435    0.28368069641717   -2.34074868960289
H          -1.86599377557580    0.93944514644039   -1.81153984865641
H          -0.01841037628244    0.65312069968700   -2.28351132385534
H          -1.34618420681827   -0.54080136199847   -1.76913949907636
