    19
        -40.91793142
S          -0.38981526586655   -1.31797486068883    1.09517902927889
O           0.61672105818927   -1.55245819921327    0.04716183091786
O           0.21457691095552   -1.16988656054854    2.39914542563763
O          -1.27347850107362   -0.22831468766354    0.73504859879782
O          -1.28089576161453   -2.62381708352117    1.13083159716911
H          -0.71804936690767   -3.28515695059200    1.52432618378886
O           0.59623457331732    1.50235380191369   -2.22460920633017
H          -0.29344460611410    1.06921739716317   -2.10733586719842
H           0.94800814429762    1.16841395667737   -3.05225940398625
O          -1.65953159410908    0.24934353791226   -1.80388813773880
H          -2.49406924067004    0.72110231397527   -1.83163557321551
H          -1.53955408137167   -0.02822862831514   -0.86454178583497
O           0.68784852183750    1.35338268551316    1.87495645408894
H          -0.21938020761876    1.50963185410087    1.58700671973532
H           0.64056133501106    0.47518956944166    2.31641323398498
O           1.85473046653901    0.55466085515218   -0.23400247016298
H           1.40869586915167   -0.41711567243496   -0.16120654119184
H           1.39776573783270    1.00223117224875   -1.04810683380130
H           1.50307600814540    1.01742548880615    0.61751675592612
