    19
        -40.91167205
S           0.53980830329882   -0.90448541088966   -1.15760887418344
O           1.27662617180465    0.19975411707837   -0.39502324525632
O           1.04666586663208   -2.17716175506419   -0.75611320358631
O          -0.87583451829018   -0.71245039528869   -1.10036584006865
O           0.96527076597033   -0.62710900795346   -2.64329576232265
H           1.85252714100937   -0.95849738332680   -2.76813956326886
O          -0.92711572014577   -0.65438132862817    1.70789567473704
H          -0.91796653888276    0.33056888356545    1.73728313404773
H          -1.18824440313343   -0.87694382338828    0.80610548991505
O          -0.58353263746162    1.96610833307728    1.27465856076370
H           0.34552384340961    2.01583719941099    1.03876656936412
H          -1.07127557755075    2.08303760418898    0.43522796872352
O          -1.78489456316701    1.83372603117579   -1.15904298522833
H          -2.74161874041115    1.80698777928291   -1.22248734449506
H          -1.47590303397562    0.91666684370371   -1.26488996357813
O           1.62698979447714   -1.07225888327451    1.69782395842471
H           1.53670614318824   -0.24026221307870    0.53793686966553
H           0.66073790027870   -0.98982479189993    1.94874479171371
H           1.71552981284843   -1.93931177870318    1.28252377465810
