    19
        -40.91471943
S          -1.67083054990786   -0.28855723385389    0.32268144487397
O          -2.16441627749147    0.38330503482748   -0.84132997721338
O          -0.93277126435390   -1.54805384170029   -0.08999965384474
O          -0.88361439938705    0.47018347853861    1.24313827134607
O          -2.92281968398411   -0.82574149902090    1.11752338078455
H          -3.57527138537990   -1.08862072618466    0.47198463376181
O           1.24913079851072    1.92421566093816    0.21665989185270
H           0.50805316880104    1.63823938370824    0.76897213171539
H           0.92393822571325    1.84595094989446   -0.69632435786626
O           0.12846798549638    1.00710893091053   -2.11292286579309
H          -0.05021470177211    1.46585048720361   -2.93630068410909
H          -0.73842318509172    0.77321313224706   -1.73576095540918
O           2.54240237055256   -0.37325946526558   -0.05802848750527
H           2.23730724452886    0.55278110169329    0.11214688618510
H           2.29526753835950   -0.55748510636611   -0.96733938571351
O           0.91390503065821   -1.60193762190597    1.53562755631873
H           0.60081198297790   -0.86066609565619    2.06962610811695
H          -0.12173904538269   -1.68790847892701    0.60815511020314
H           1.66081613714101   -1.22861809106590    0.97149095227499
