    19
        -40.92113585
S          -0.81944788282401   -0.29955768011258   -0.81769364328279
O           0.60340175501385   -0.90783297318256   -0.65304883621884
O          -0.95564698632359    0.75751262685901    0.16648084251787
O          -1.02723441003102    0.09913776610760   -2.16562812492466
O          -1.72300148839475   -1.46739865468802   -0.43336182196768
H          -1.31193140027519   -1.91654599631288    0.39234452142269
O          -0.46632894946689    0.02491146367346    2.66593912553775
H          -0.63380273577428    0.40873184018163    1.77924488421841
H          -1.21002747720219    0.27983577752747    3.21551525459148
O           0.98268089507792    2.48671108773672   -0.57320537946287
H           0.17879887641639    2.01003707067652   -0.29802294391485
H           1.46431295840550    2.69792439681079    0.22929131717061
O          -0.46903025087662   -2.38178328397306    1.56876098567426
H           0.40575264341111   -2.47982286300386    1.18117982626308
H          -0.42774265964493   -1.57443449148980    2.13856801318844
O           1.68936999485035    0.61435246535493   -2.34561687628374
H           0.90895978666755    0.60985145418870   -2.91462980309951
H           1.61958719158708    1.43874068343052   -1.81604258645334
H           1.19133013935359   -0.40037068975708   -1.32007472493354
