    19
        -40.91990205
S          -0.06428347329140    1.43170470660354    0.48427399626002
O          -0.64747352607604    0.96326259574920   -0.79388265726323
O           0.26867173842455    0.28666336464396    1.31709141406794
O           1.02591355105124    2.34066345128491    0.28506159539785
O          -1.22881185176384    2.19965889155040    1.22073799632763
H          -1.79474271169962    1.51869288809704    1.57816640816681
O          -0.15591127733314   -2.11258018174765    0.37410034549971
H           0.04216287425813   -1.35391254024746    0.97130563819759
H          -1.10953818506263   -2.00418996733318    0.18972403243500
O           2.70908968150992    0.36044736440113   -0.13668905823049
H           2.72962266235513   -0.01999240933689    0.74658563006648
H           2.24675144858387    1.22354088062945   -0.03093521243213
O          -2.47478969312907   -0.84817884902354   -0.19289155401000
H          -1.89055331382306   -0.10614967235953   -0.45888384815084
H          -3.13098649994724   -0.93964890591131   -0.88564373783129
O           0.92602621344824   -0.85399967157289   -1.47768728183496
H           0.25692591426739   -0.07083007842872   -1.38772209629873
H           1.77369548842119   -0.46199103712176   -1.04004180786515
H           0.51823096984106   -1.55316082990776   -0.76266980250006
