    19
        -40.91398585
S          -0.17636698931475   -0.07491830374815    1.64679827353409
O          -0.39743485938171    1.26856592734252    2.08135746301686
O          -1.25001513255058   -0.62590311221276    0.81273070281382
O           1.11743974718527   -0.30113077129724    0.98511575618441
O          -0.12420132800716   -0.98831417041814    2.94520964682501
H          -0.59182674173953   -0.51043636269817    3.62462924556081
O           0.21431483945613   -0.75938430081737   -2.62955499600300
H          -0.40280061470483   -0.03712723404237   -2.28112963982974
H           1.04539244125856   -0.32703042237996   -2.83995772488815
O          -1.15625546701558    1.01624051536200   -1.37497428867962
H          -0.45010709235485    1.61704657199140   -1.05249030069716
H          -1.46495424064933    0.53451965591154   -0.59054272806707
O           0.94395863864522    2.16288386233832   -0.15178667852016
H           1.29710761565451    1.33521219485178    0.20908142758800
H           0.52075120638711    2.58278320894590    0.60518552627675
O           0.27944610992309   -2.06841520316369   -0.50897193076302
H           0.28368584036349   -1.61156036534516   -1.48244945732013
H           0.89642162258754   -1.47337782580389    0.07490767571913
H          -0.58455560575501   -1.73965386476263   -0.07315797280577
