    19
        -40.92113582
S           0.78174359536154   -0.64973083345768   -0.62871804169226
O          -0.37727755532283    0.03354344031210   -1.17110323633182
O           0.76766653168483   -0.43657247917972    0.91271941353075
O           0.86167918922079   -2.03614513552147   -0.92937285635418
O           2.04793690722982    0.08872598052480   -1.05168044661025
H           2.08009511482717    0.97081316485009   -0.52866109389006
O          -0.56792664745157    2.59523185616189   -0.51908944455342
H          -0.67688158527384    3.11255008809865   -1.31944571806193
H          -0.61281430294573    1.65383332237244   -0.78996505111222
O          -2.42207944999835   -1.26957233332911    0.01903523279810
H          -1.78021894126447   -0.82175842536016   -0.56117123995244
H          -3.00159516103787   -0.58754354178420    0.36477071603512
O           1.87720515756827    2.16311003930603    0.39232225491626
H           1.75170220768345    1.75041179850610    1.25196933679161
H           0.98890654533373    2.50029184636677    0.11787381432562
O          -0.52815660231602   -2.54187629806328    1.41274692125146
H          -0.09008378436298   -3.03025517095860    0.70384618804302
H           0.28196818646592   -1.25383467860505    1.29265715029402
H          -1.38186941544792   -2.24122263033514    1.03126611064253
