    19
        -40.92343652
S           0.91367475551061   -1.35777525554308    0.40931495119392
O          -0.05156472272274   -1.40011316013898    1.48699691033393
O           0.36983035065741   -1.90923586838838   -0.83266250643374
O           1.46927232218408   -0.02853284832409    0.21018783831278
O           2.12168917297935   -2.28573707340494    0.81153558036831
H           1.70957711888335   -3.13976177193730    0.89720143768586
O          -0.00721298507508    1.97793136235279    1.12805641257900
H           0.62127008963366    1.25424271950513    0.91110389684704
H           0.18027155944971    2.23373413712281    2.03223301446638
O          -1.96497967116437    0.19257185590026    0.68477053576477
H          -1.48655455782383    1.02163691640808    0.89541536083571
H          -1.41572116639590   -0.50881671486638    1.10966383090031
O           0.50597673330870    1.53737389253426   -1.72406798557124
H           0.25516852656359    2.27456070924824   -1.15647763667716
H           1.09733399654557    0.98251228223588   -1.17404241720671
O          -1.29161504755139   -0.26372706588216   -1.67045183459295
H          -0.64224929413739   -1.05019402380909   -1.44057824256350
H          -1.73054732249148   -0.05030440669343   -0.71889470647848
H          -0.65361982847772    0.51963431357504   -1.85930443970650
