    19
        -40.91567405
S          -0.74511958670669   -1.18782776175378   -0.83245185526668
O           0.33519383135234   -0.30592333800326   -1.43271871290793
O          -0.95981042206526   -0.80992935881581    0.55705338015173
O          -1.91970869449945   -1.23502927733018   -1.62421748742058
O          -0.04130001082909   -2.58319201363401   -0.82762062214464
H           0.74771702751650   -2.47849426792618   -0.27691821152951
O           1.44685815738161   -1.40959707208337    1.25503363366491
H           0.50224265825134   -1.14328893657504    1.17783433894039
H           1.55552344182665   -1.78480325524245    2.13213218625531
O           1.87311599084131    1.36108601625192    1.12476700185445
H           2.72091949164145    1.57558440555956    0.73076502399491
H           1.81966553207329    0.38972914330856    1.15288747796853
O          -2.42776199859792    1.31590765758222   -0.18598947855605
H          -2.10952055873600    0.56746386858256    0.34272111292581
H          -2.84756398791037    0.92006162554236   -0.95502541421426
O           0.06920541428718    2.03999567002275   -0.73780516122750
H           0.62487772290501    1.98706840244547    0.07348812308862
H           0.23444979065501    0.75785256752478   -1.20692201796604
H          -0.87898378934199    2.02333591457758   -0.46701330755564
