    19
        -40.92218957
S          -0.64800330490713   -0.85508895433361    0.43502147838162
O          -1.23135109473111   -0.83303618291728   -0.90625186930589
O           0.76995670500392   -1.19766565353440    0.39292343263731
O          -0.85961323989158    0.41183509093609    1.12798150138379
O          -1.39604165488435   -1.97114394729046    1.22104367646500
H          -0.96228327561263   -1.93308125136823    2.09878345087240
O           0.26709753247155   -1.13592852988998    3.08123884430823
H           0.95449054318230   -1.28226930905098    2.41800281599434
H          -0.08371829695342   -0.25756291941550    2.88301917458213
O           2.06068287672473   -0.11150822076518   -1.57592007803654
H           2.41460607566148   -0.83311433098188   -2.10023607223541
H           1.66583349168824   -0.52931445037848   -0.76363493676587
O          -0.58288935869969    2.50108644518841   -0.38172375377852
H          -1.42436819175043    2.96203321085260   -0.36531293329327
H          -0.65818348687623    1.76687997958569    0.28575470752019
O          -0.14017412842646    0.90158654787196   -2.28320838803296
H           0.83276453228828    0.58255298965322   -2.13032336296135
H          -0.69315882476930    0.12624957496596   -1.81193271360830
H          -0.28564689951553    1.68748992087650   -1.62522498412915
