    19
        -40.91793068
S          -0.92981293141001   -1.36320470040414    0.60231731273051
O          -0.75493518891256   -1.58696997034618    2.01908428361844
O          -1.46065182376267   -0.05476381515521    0.27968630419453
O           0.30400614596899   -1.63509958783956   -0.15256481746686
O          -1.98926985154959   -2.41649535724860    0.08423055619429
H          -1.70938501700703   -3.24390434612182    0.46634098023273
O          -0.93495979298699    0.93356281431861   -2.08033759859154
H          -1.16757863138326    0.47611929975700   -1.23749563573229
H          -1.62560619717622    1.58356089112254   -2.22313979937682
O           0.27053788449243    0.81291853450609    2.25347691674366
H          -0.05887006135112   -0.09403832742499    2.44604721253663
H          -0.45879700629135    1.21945728436465    1.77059930659666
O           1.51339765597186    1.68727332313563   -1.55741814826585
H           2.04865210923326    1.42902814308421   -2.31049833737967
H           0.57353297829882    1.45643491078935   -1.79444609079630
O           1.89929575241741    0.14664689786772    0.42313408147616
H           1.80573456796575    0.82114582640815   -0.35657070928460
H           1.37643344378063    0.52272269671136    1.22826837919283
H           1.29827594364315   -0.69439450753716    0.13928579343507
