    19
        -40.92246925
S           0.78222602675841   -0.15283574176852   -0.71371554191018
O           0.65846001236301    1.27174429371202   -0.64395383740654
O           1.31002000828478   -0.54971930946383   -2.10971486282669
O           1.61886423448808   -0.74689638732718    0.30282412198426
O          -0.59229475189030   -0.81554365910648   -0.67592850159366
H          -1.23772637591653   -0.40393727867333    0.11393424867899
O          -1.64237169677616    2.55924812824970   -0.11800566276771
H          -0.74359996518125    2.25613819616344   -0.34830792131233
H          -2.06519473316877    2.80730278300928   -0.94182096235702
O           0.44205731339093    0.64849388969696    2.29210431395544
H           1.00545076241591    0.07769577250524    1.74211859572296
H           0.70105936656294    1.55035049404729    2.08695321550217
O          -1.90053104529887    0.23435038953053    1.12862873329603
H          -2.04276595132300    1.13578302982539    0.75337974947885
H          -1.16782645885578    0.34577639707149    1.78216221493043
O           1.36076262329072   -2.97739101852132   -1.17879599796201
H           1.64975699444128   -2.49456506637880   -0.38731598532187
H           0.44061330102225   -3.21457428507784   -1.03293200770191
H           1.42304034540436   -1.53142061745186   -2.05161390235821
