    19
        -40.91535455
S          -0.12128404542438    0.48645694657920   -1.93867848595768
O          -1.05213125381228   -0.71372934946816   -1.91537359549618
O          -0.70806666358834    1.59914987966252   -1.25286624382426
O           1.19990439124715    0.11275266096666   -1.52923419579659
O          -0.06791771824567    0.82993157210661   -3.46910794292373
H          -0.89418664810217    1.26767208028493   -3.66030582137758
O           1.00468667915155    0.77568913548271    2.55270149039273
H           1.33940948389266    0.09516767922539    1.94493039029829
H           0.97324642189275    0.37962076932400    3.42524862812901
O          -1.41530423697096    0.98079564997522    1.30723485743748
H          -0.59497444910396    1.10904960723561    1.82240238451662
H          -1.26371648039867    1.42039258406941    0.45430429763294
O           1.58267223987446   -1.21431306020903    0.70484620346084
H           2.33660879257731   -1.79826484223561    0.60346310763208
H           1.53460865924802   -0.68368718812640   -0.12308592360173
O          -1.13381422063861   -1.42875296618638    0.43799910050051
H          -1.14493484027846   -1.09467806858622   -0.89487882400212
H          -0.19474444158736   -1.57250447330279    0.65795581082873
H          -1.38006165005542   -0.55074862650257    0.87244476222491
