    19
        -40.91907715
S          -0.74497903460489   -1.23970806984912    0.82972309658208
O           0.21307982541155   -2.22582076986342    1.27176466270190
O          -0.45014234367924    0.09594652178685    1.39064502535248
O          -0.90919689405098   -1.16875269778984   -0.60403378624197
O          -2.14853202388362   -1.64584176152672    1.43892185178583
H          -1.94867044463776   -2.03670020705805    2.28555282054420
O           0.59433423952336    2.25566545089972   -1.44516824590597
H           0.60988446481444    3.20754413794070   -1.33047102032468
H          -0.34811353816807    1.95943794866563   -1.28045475133022
O           1.82325614095823   -1.50766906672703   -0.66955650314335
H           1.10465067234347   -1.50691803358393   -1.31527013483873
H           1.43897226704549   -1.98256779670911    0.10103427906174
O          -1.72445709020714    1.34049372027680   -0.68420186917058
H          -1.61993316679313    0.39709160495534   -0.91737856306236
H          -1.61265871917195    1.33574324676794    0.27551549978016
O           1.67370912562671    0.80939894193569    0.32357303948551
H           1.90387550398395   -0.09967070548192   -0.12765335974636
H           1.33186749665183    1.44315744534534   -0.42689696851375
H           0.81305352882331    0.56917010007566    0.88435491699520
