    19
        -40.91080929
S           0.08396999417289    0.66364317856136   -1.46734059104757
O          -0.70513553352370   -0.58059522684026   -1.80953429927173
O          -0.77576212900338    1.65625402456262   -0.88389849697217
O           1.26444982866391    0.33473016266452   -0.72790520566485
O           0.52896371227681    1.18427202792483   -2.87620840034444
H          -0.23955455981118    1.60314775187885   -3.25628436499904
O          -1.43582636568510    0.65032654545650    1.47164666607634
H          -1.22504636466107    1.15500130282436    0.65767771547995
H          -2.18848204125496    1.08336907275948    1.87928625375988
O           1.36072009006362    1.47143471761909    1.89968297790196
H           0.47929769638883    1.14119635085885    2.10026031765985
H           1.53768028241689    1.20681370766170    0.99082820784469
O           1.43018049004765   -1.99544155520601    0.65923699130973
H           1.57183656205480   -1.12151634734966    0.25412087976959
H           2.03365177428587   -2.60214049184655    0.22745391662707
O          -1.15636543416508   -1.72572404363068    0.31133960435839
H          -0.96169412784856   -1.15324043478047   -0.88586871973574
H          -0.23967467121991   -2.01024975645327    0.55852922428073
H          -1.36320920311845   -0.96128100711030    0.89697732271543
