    19
        -40.92071435
S           0.83976407524973   -1.21047631859291    0.16459862304590
O           0.67684460805173   -0.14538153443908    1.17395870066608
O           0.16509697114023   -2.42592993755422    0.55859840205959
O           0.46773485914716   -0.72811613932576   -1.14539965822238
O           2.38555057903140   -1.53583975325028    0.13282166125441
H           2.49075112313803   -2.20791184822234    0.80024644476352
O           1.47476286310331    2.27797799355328    0.34531491759322
H           1.34322308455948    1.37286717552901    0.69126705750672
H           1.60371187654898    2.84638360797036    1.10600472869359
O          -2.13864611044696   -1.58327202868627   -0.35490017315601
H          -1.94737262988263   -1.55270302091189   -1.29694371371848
H          -1.37524991444739   -2.06295532964519    0.04543586153128
O          -0.49618815713564    1.70804423276446   -1.35447316658103
H           0.22527732699539    2.20642970623263   -0.91561835289585
H          -0.08312877818905    0.83838610462886   -1.56220477424400
O          -1.62246194955705    0.70898892393988    0.61038583284472
H          -0.73284345805541    0.40744419125366    1.02418251540417
H          -1.26413991403154    1.25866051103081   -0.27034729258911
H          -2.01268645530597   -0.17259651631147    0.24707238600459
