    19
        -40.91893384
S           0.26620343221862    1.69834570683289   -0.25486691252343
O           0.78371297908973    1.83089081209892   -1.59295578470999
O          -1.09015897736819    1.19464448799274   -0.16566903099102
O           1.17232450081143    0.93376428121643    0.61581927173149
O           0.22679659621239    3.16232294183951    0.35830687741631
H           0.97447038448665    3.58687466986204   -0.05136424326428
O           0.89345868680016   -2.44751842036102   -0.61522905049814
H           0.46247134973674   -1.80874428864839   -1.24406522213431
H           1.81884158679757   -2.48359390805729   -0.86514674739262
O          -0.17844782512804   -0.57310780908267   -2.10612676107848
H           0.29143990570292    0.28508809554132   -2.08300794821866
H          -1.06824179891447   -0.36249957755722   -1.80756620185968
O          -1.95291068082047   -0.57428288544395    1.51841122261857
H          -1.74614460300890    0.12287528855226    0.84345982307734
H          -2.33402960651132   -0.11692224001220    2.27018870255765
O           0.49835030113864   -1.23202766076390    1.56705887351982
H           0.83702529243486   -0.27472007580771    1.22638290103483
H          -0.51585719862299   -1.10543951067242    1.64501811746265
H           0.66069568634875   -1.83594989943452    0.74135209308430
