    19
        -40.91966071
S           1.25762516025511    0.52949623039769   -1.03403859440928
O           0.12977117153321    0.55442769167302   -1.95241792096934
O           1.20730057691964    1.67796951999641   -0.11617290254217
O           1.38471334948460   -0.71788795913181   -0.32200792656188
O           2.56108243381715    0.72102950137371   -1.89566932846973
H           2.40242944730641    1.54661826202184   -2.34281621424921
O           0.37369835813359   -1.10318752834565    2.17399507707622
H          -0.22866165884693   -1.70578639285013    1.67338206549964
H           1.15815513816118   -1.06365577805934    1.60229510630620
O          -1.98500245487986    0.35607200036727   -0.52140137182120
H          -2.68504594894991    0.89065638827758   -0.90089345764545
H          -1.21190811207780    0.41375578020023   -1.15507574651257
O          -0.89958584626400   -2.19513600366897    0.13440383128151
H          -1.58024047605222   -1.58461883537692   -0.17136970101858
H          -0.07804406427873   -1.91049392293907   -0.29854249109873
O          -0.56753313295009    1.10659143596309    1.49964093924709
H           0.22798225327492    1.45432427479302    0.88483499607662
H          -1.27267556333465    0.84175371743932    0.82629738168508
H          -0.19406066127492    0.18807162786254    1.91555626810975
