    19
        -40.92003356
S           0.25751965838362   -0.46276396933767    0.70073610672928
O           0.16729146493273   -0.03034378187115    2.16614207725998
O          -1.05576956668045   -0.71220640228172    0.16248717551012
O           0.99727242169265    0.52373134823648   -0.05027408158172
O           1.05170202109734   -1.76644576309556    0.80626656080062
H           1.21044552878091   -2.17151040412328   -0.11819765986380
O           1.44387217530137   -2.53837548152121   -1.58532603611210
H           2.36593325585067   -2.41558984906360   -1.82424091288557
H           0.93111422355411   -1.83219932006210   -2.05914722917853
O           0.10456183971996   -0.42869093901881   -2.40541087380698
H          -0.79552583240824   -0.58134762864796   -2.10031983724968
H           0.50465231502357    0.14275128369117   -1.72684688852608
O          -2.22358977775239    1.67145944229957    0.52983356967825
H          -3.04403561021401    1.55931867879148    1.01435590624245
H          -1.90701809770709    0.77363338961636    0.31176224269036
O           0.03728342428352    2.45141591275426    1.71856895246622
H           0.14916033449673    0.99607304653204    2.16735810927559
H           0.66107150465929    2.41020830095034    0.98356808652731
H          -0.85594129303582    2.41088216613453    1.30868475203777
