    19
        -40.92079075
S           1.46558868991955    0.18076113637466   -0.16001199942833
O           0.65707168342262    1.18213124585617   -0.85803954815952
O           2.01839480933906    0.67854266358824    1.07320940024222
O           0.74197500184009   -1.07624791098186   -0.02794608936453
O           2.68136018053126   -0.14385882154303   -1.11992372277176
H           3.21614958711544    0.64237504670289   -1.07136292840025
O          -1.54714562337829   -0.43846207135556    1.18013381229970
H          -1.22904806044099    0.30208299910574    1.74809185033545
H          -0.72618990199423   -0.90713730693895    0.92664619665972
O          -0.80031236093473   -1.70707733657359   -2.05375827639269
H          -1.20794091402754   -2.55528705355749   -1.86774730668772
H          -0.08071630570348   -1.58897478971467   -1.38958546902706
O          -0.14747213792156    1.44609164334708    2.37938735555631
H           0.07373689116742    1.49913694658541    3.31111326680652
H           0.69352192958882    1.25761282005675    1.90931971614507
O          -1.70694093549143    0.49860365081844   -1.12400526240004
H          -0.74313349139723    0.92346795318561   -1.07788450863437
H          -1.53669644851083   -0.34849022802726   -1.65652200522405
H          -1.82220261303068    0.15472940310937   -0.12111448130283
