    19
        -40.91955053
S           0.68082173302403    0.86640496511161    0.38632804830481
O          -0.57470594428796    1.28048622627576   -0.19648605332862
O           0.38619946371531   -0.14018132462531    1.51408189517978
O           1.63922925573668    0.34100144319611   -0.52808879225686
O           1.28862116106676    2.04759501235261    1.16910218447080
H           0.53811894113190    2.36650296291353    1.73128303356375
O          -1.34736970128059   -0.15786038075763   -2.36771003916867
H          -1.31552160058665    0.43478058330223   -3.12093859923080
H          -1.16979890897849    0.38870170541609   -1.58153006268747
O           0.69414542700018   -1.85392083894092   -1.84889312511304
H           1.27614009944990   -1.11813772850614   -1.60084171139707
H          -0.11541235168086   -1.42492068748589   -2.19126556729897
O          -1.06446666506806    2.30348912718874    2.23758087703767
H          -1.19642760474508    1.52530594294070    2.78629453654599
H          -1.32292850464433    2.05267385637140    1.33563036903820
O           0.15454083420288   -2.45970405115768    0.59726399000435
H           0.30484116952973   -2.33348284136813   -0.39386512989125
H           0.88077119000233   -3.00387457209032    0.91098897054684
H           0.26320201642050   -1.11485939018261    1.16106517568472
