    19
        -40.90759005
S           1.09549410624230    1.40554218356122    1.17989768229554
O           1.09247170706604    0.44746807601906    2.23968236489556
O           2.18638126379641    1.41148115253507    0.27061885746933
O          -0.23638047029588    1.30601504322389    0.38503517581202
O           0.95692597764850    2.83022606155154    1.82879721343046
H           0.47006229963714    2.73221982107106    2.64543924348139
O           0.72790122478990   -1.67250454169245    0.50510253864710
H           1.02679736071313   -1.15575205421188    1.26583065294549
H          -0.25089654038835   -1.71830525470123    0.59486679243781
O          -1.90820631701540   -1.15704596553617    0.46744791797382
H          -2.05878120444736   -1.14125033516733   -0.49727889175677
H          -1.85360459647584   -0.23612600333421    0.73537720408417
O          -1.79748482898430   -0.98104156365942   -2.26444379496039
H          -1.71859564507725   -1.82564321508100   -2.71178253467846
H          -0.91736036716643   -0.57973165589209   -2.26936389477839
O           0.74407905793257   -0.06366690125255   -1.51957827819658
H           1.59535107483666    0.38916065532756   -1.50975785729118
H           0.83797566933116   -0.82031938477971   -0.86554133861716
H           0.00787021779644    0.82927387203216   -0.48034906309112
