    19
        -40.92174072
S          -0.61013131252050   -0.27613164121114    0.59666954825094
O           0.49165474149145   -0.27951642000106    1.53573983411963
O          -0.76512896495670    1.10108607849344   -0.02194991282572
O          -0.52788871056580   -1.28080749874250   -0.42245827741896
O          -1.92656280922838   -0.46737727348596    1.38065450456952
H          -1.81887900446992    0.05102216628451    2.21969590962911
O           2.31415402650156   -0.46825364844452   -0.45646708848127
H           1.84889261486572   -0.41434332689361    0.39463640747720
H           2.06084269141871   -1.31157265498112   -0.84090319324819
O          -0.98970804668122    0.74851430036588    3.47424211333426
H          -0.17781454732195    0.54501472378533    2.97397150913734
H          -0.94689883959396    0.24704820757458    4.29241633492123
O          -0.33475368429925   -0.67771368492047   -3.03856920006588
H          -0.44016043281151   -1.05811175983585   -2.14591080592141
H          -1.21483986213974   -0.61602410732441   -3.41352581663082
O           0.91363440986654    1.32958869202755   -1.82050502320007
H           1.64373692008361    0.81215412658057   -1.40586084054343
H           0.52213943914640    0.72288819039014   -2.49071205115802
H          -0.04228861883784    1.29253554021815   -0.81116396192484
