    19
        -40.91892637
S          -0.53102394466595   -0.82373242192212    1.04682644708745
O           0.42488458838069   -0.78597979581950    2.13247981389472
O          -1.10162499673998    0.51137863973235    0.78739847041214
O          -0.03759591765883   -1.41915070954314   -0.17029356859013
O          -1.74641354375748   -1.71283564115704    1.52996058924590
H          -1.86842109181536   -1.47443601556653    2.44427407381295
O           0.58712835398607    0.12667258779017   -2.35846380443616
H          -0.38690972013525    0.06040969698183   -2.48258712929550
H           0.79917566520316   -0.66989367209879   -1.84648881663846
O          -1.96432205899872   -0.37893508791035   -1.74975731489739
H          -2.30657649984426    0.26927745865970   -1.12735663990157
H          -1.47384853147191   -1.01302686069403   -1.20021183484441
O           2.36512917436028    0.62394340943894    1.13283365916115
H           2.78073002459418    1.10294379263458    1.85320088906994
H           1.71778203729049   -0.00043307447651    1.54991526754398
O           0.68916746995429    1.71891582802545   -0.43256675860042
H           0.71047331377462    1.14200647089153   -1.32921367775859
H          -0.13673817535392    1.32519669043052    0.08654006406311
H           1.47900385289289    1.39767871458115    0.13351026067736
