    19
        -40.91247210
S          -1.48710437887895   -0.36911203118461    0.79223945588359
O          -1.41336660353746   -0.42215956550946    2.21775986522796
O          -1.20413579244946    0.86326871167848    0.13745370376809
O          -0.65277465400125   -1.50414925750507    0.20435217965179
O          -2.96608440241676   -0.77758806104275    0.38685622023035
H          -3.30604764501736   -1.32010451072310    1.09519009354403
O           0.61218398250325    1.41622012017617   -1.80944044644441
H           1.42623002782727    1.41036384145697   -1.26185739710087
H          -0.10571018959608    1.55111461750546   -1.17163175871059
O           2.50349617710168    1.33374772263565    0.10159640377351
H           2.68153928494332    2.16013330897570    0.55321012391592
H           2.09762592413001    0.74431330523103    0.76492951964470
O           1.28429357498751   -0.31288628293902    1.91647342194874
H           0.37108185190019   -0.24013974301130    2.22988579789151
H           1.38790621871305   -1.21682784538548    1.60923365946486
O          -0.12953747229166   -1.00447365015778   -2.17110047677997
H          -0.41118799886896   -1.32672687556225   -0.81681505416282
H          -0.95199470870949   -0.92001283086949   -2.65925052145885
H           0.26358682303390   -0.06498098383186   -2.11908480181536
