    19
        -40.91235069
S           0.05655994949735   -1.24247004883999   -0.93026621096222
O           0.15580043126204    0.30957562221813   -0.97155165343178
O          -0.32932797933007   -1.71707392945689   -2.22196174889626
O           1.23424949721338   -1.76375259019899   -0.32481131308241
O          -1.14491072834224   -1.43766974602159    0.05536928764236
H          -1.95360639462150   -1.26504543416777   -0.49125768418407
O          -0.89451015925382    1.01064906780429    1.52961988004373
H          -0.68749004394617    0.94997796038092    0.58555377031003
H          -1.22229214214339    0.14157356232024    1.77782369443561
O           1.63835609806862    1.46107236956786    2.34360586374323
H           1.75637165989663    2.38344911964985    2.57682174250325
H           0.67726143046665    1.33023331249307    2.19582892906161
O          -2.79325265679201   -0.84546437414480   -1.86386441220037
H          -2.83122055288857    0.07944993305387   -2.11978113965024
H          -2.05423350060416   -1.24404215945632   -2.36104124047784
O           2.43172445802816    0.64094518748293   -0.04196807135893
H           1.13348504165146    0.56115458947062   -0.64549769116503
H           2.26576269868626    0.96408196388085    0.88205863212813
H           2.56127289405549   -0.31664440749218    0.02531935475415
