    19
        -40.91955067
S          -0.83162042955890   -0.79991216961245   -0.17241411152671
O           0.45436621377089   -1.10710517671409   -0.75462030977727
O          -0.63520006033133   -0.53755298790035    1.33235331852736
O          -1.54510804762881    0.26957326599784   -0.78717034797001
O          -1.69798461717676   -2.07543830992057   -0.15941027078550
H          -1.10144079079681   -2.75965952042991    0.23669803515452
O           1.75876880235689    1.02377471014708   -1.82254878386075
H           1.38447625249640    0.21109761493315   -1.43837043537358
H           1.79005036004858    0.88437330713925   -2.77073690795601
O          -0.13602919773505    2.60704401413448   -0.71898190994537
H          -0.83231995574682    1.96665831105192   -0.93517100166767
H           0.66785137704678    2.25378826303245   -1.14977382015199
O           0.38054979378314   -3.24887647552904    0.86392188195113
H           0.49725020252303   -2.87283313567131    1.74082380269110
H           0.82373725744315   -2.64693970073966    0.24396887107414
O           0.01717839887388    1.84662935523768    1.73880657341761
H          -0.68814841748531    2.29767207155241    2.20900455966849
H          -0.34210323141650    0.44382168898161    1.53360964808478
H           0.03572608960206    2.24388489438474    0.81001118848918
