    19
        -40.91774350
S          -0.36567884725027   -1.00120627394240    0.31390344286385
O           0.83537376387844   -0.45090313919287   -0.46809065169125
O          -0.09823444086628   -0.93076869137989    1.72048070923385
O          -1.56755048096874   -0.34532972735669   -0.11572479292482
O          -0.41927018772506   -2.47617600122810   -0.15241165122609
H           0.48376598494080   -2.82848299383273    0.02712577208765
O          -1.67429911667331    1.86764758910698   -1.60252760637077
H          -1.84163994028018    1.62738386391223   -2.51522580710504
H          -1.81023206804231    1.05610007422953   -1.07317833150589
O          -0.48140538595213    1.70109935985595    1.92238834690469
H          -1.43238503827005    1.77028540863998    1.80885138418903
H          -0.29777859524984    0.75219869802981    2.06355056806240
O           2.16810656661686   -2.75798144644053    0.09117934109888
H           2.63584348417986   -3.09956077633972   -0.67547603871041
H           2.12864681020315   -1.79531918037986   -0.00435843918690
O           0.67623488447581    1.99478092888655   -0.41383842099991
H           0.82991908684322    0.67512236724615   -0.47919358968518
H          -0.12772866472468    2.14942128478445   -0.96998778862374
H           0.35831218477086    2.09168864539491    0.52253355360269
