    19
        -40.92136406
S           1.29507264245946    0.35430789787497   -0.34554424290728
O           1.02352664749034   -0.78163038871863    0.55301698914897
O           1.88807896758340   -0.06339686087938   -1.59161570661659
O           0.12136873401349    1.18508190709876   -0.49337925514487
O           2.37837864689530    1.23088799116657    0.41560872078921
H           3.21342556943494    0.88773971641192    0.11037023681977
O          -0.17320218450870    0.50403620994291    2.58293462866516
H           0.36977518934044   -0.02778184372891    1.97093317833529
H           0.28417180419381    1.34045358498014    2.68459699505646
O          -0.48769349762951   -0.76493751884581   -2.49110514255848
H          -0.87546562311157    0.09998639322338   -2.65122570974367
H           0.46441465809274   -0.59198232553233   -2.31209725718086
O          -2.08689300680539    0.48227870825010    0.72890815168036
H          -1.42500355858801    0.98683701297256    0.20282995070859
H          -1.69095983786028    0.48627190488198    1.62835734856782
O          -1.20955102614235   -1.63843437269672   -0.20442880406197
H          -1.06350202229943   -1.41698155112052   -1.19335196929063
H          -0.27228032350396   -1.48500920349496    0.18618700717938
H          -1.75366178905529   -0.78772727179219    0.21900488054747
