    19
        -40.91907725
S           0.03485434724861   -0.97401909614236   -1.35340025914580
O           0.22026846887779   -1.44863992561248    0.03441045392930
O          -1.29773590303405   -1.25031971399350   -1.83677184910188
O           0.44130240955633    0.40643580983535   -1.48190653969135
O           1.03674878089442   -1.83627381379318   -2.22430957672293
H           0.56855598919251   -2.64453681942292   -2.41670493041055
O           2.20557069435847    0.38371358815255    0.48007659805483
H           1.95897380990069   -0.54103422382971    0.61107841331320
H           1.76065027206208    0.60917999596476   -0.36079949436458
O          -1.22986195690649    0.00199981337737    1.43032369542647
H          -0.54546875695834    0.68906822845008    1.80594263110503
H          -0.64201254134464   -0.71094241574351    0.92028955674537
O           0.60979549878632    1.57112605947068    2.16494906221078
H           0.96342976737167    1.47865191300315    3.05145636695423
H           1.31180637364406    1.23267963708928    1.53618196875109
O          -2.14792428776304    0.96317829041819   -0.71730611640397
H          -2.11343701461269    0.12739667423445   -1.23455895378481
H          -1.73434423386308    0.47074406513339    0.65040661516827
H          -1.40117170735348    1.47159192342531   -1.05935765201694
