    19
        -40.91535433
S           0.80419973004622   -1.60149260129406    0.89337982211543
O          -0.37507150714429   -1.32482986945469    1.65854691897944
O           0.62132415017960   -1.76668177889856   -0.51808706377308
O           1.88686776491804   -0.57533064282034    1.17955784731689
O           1.44752207560599   -2.92068890948982    1.44932089157015
H           1.36042214376205   -2.86578119897297    2.39816554751936
O          -2.31112842025169    1.04448810550904   -1.30306794856077
H          -2.51978000773686    1.89028811820559   -1.70339499572410
H          -1.47265029754818    0.74600488032265   -1.69334112990026
O           0.25313496104230    0.31349657838169   -2.07837258432392
H           0.34296279705757   -0.52135645960963   -1.56422025352387
H           0.64216716290825    0.14008150465713   -2.93755064497556
O          -1.30623084979237    1.20215197215683    1.22983821880292
H          -1.16348404971091    0.29333696196452    1.54190242521937
H          -1.85741639964832    1.12506013932873    0.42672085533824
O           1.04802085294739    1.53755734470827    0.23751936408386
H           1.58847458515521    0.40173351695427    0.78964538057107
H           0.86681659028381    1.30899209022426   -0.69305437175236
H           0.14384870796276    1.57297023811846    0.68649173102092
