    19
        -40.92003358
S          -0.57980358649401    0.60412790011451    0.26556461902039
O          -2.10960550170706    0.61026581823085    0.23138232118320
O          -0.09884191204014   -0.35257492638343    1.23004441123294
O          -0.04258295748776    0.39083094878936   -1.05734856290036
O          -0.27026518863161    2.03215438763324    0.72109293297587
H           0.62520929741575    2.28866675219877    0.28965771387669
O          -0.24566066139676   -2.28538198796742   -0.83406609940356
H           0.04818730652155   -2.31628117206286    0.08201922091726
H          -0.00149286028824   -1.39613140518028   -1.14468093049646
O           2.51525150385672    0.23433645468783    1.28090327606165
H           2.79411496939391    0.39834709602074    2.18413968094530
H           1.59799567233650   -0.09728026139928    1.33093449089346
O           1.97114598479279    2.21310667919403   -0.42788170875838
H           1.67945701977372    1.71856903263068   -1.20337897031268
H           2.41220135036188    1.55441748409939    0.15444891436304
O          -2.79628836194296   -1.66192029950806   -0.68341370359344
H          -1.89561888270033   -2.07317958328440   -0.75959562659224
H          -2.47070331464047   -0.29261520867506   -0.08165951966900
H          -3.13269986713982   -1.56945771904710   -1.57816247959468
