    19
        -40.90733249
S          -0.69617176905802   -1.73998102021786   -0.15252466696488
O           0.32931933267414   -1.67278424851461   -1.28768085524628
O          -0.05680755932037   -2.13606333880931    1.05975657772595
O          -1.50043993787612   -0.56099246731941   -0.14690190992886
O          -1.62807128166513   -2.93562158311566   -0.60028926629191
H          -1.21234400837342   -3.73971267519732   -0.29574074766100
O           0.59833281357289    2.32457628857539    2.45068539615243
H           0.21334469788855    2.45294396089419    1.57195262725869
H           1.20781625897007    3.05098881382140    2.59161852677424
O          -0.00991403225994    1.69912327199571   -0.30283887447884
H           0.74745718762655    1.18301944055543    0.05873643664878
H          -0.78249248236707    1.16111538188451   -0.06957757715252
O           1.57090903601061    0.07227865172094    1.09070535668599
H           1.13675471150878   -0.78322027796580    1.21316619110849
H           1.37966830545030    0.59725856518833    1.88469739528988
O          -0.22518748012516    0.41479075738097   -2.59732437128780
H          -1.18019747932160    0.39670819545246   -2.70266250823476
H          -0.04591876283443    1.07160031557929   -1.87399143986735
H           0.15394243966821   -0.85602804173550   -1.89178628061045
