    19
        -40.92246924
S           0.13036378660575    0.71154660802656    0.78940816245102
O          -0.77572952532515    0.82908797399151   -0.43349276293241
O          -0.46984240126460   -0.20279098082767    1.73292224144530
O           1.46910819690555    0.38991648224416    0.39720726364810
O           0.10030332215327    2.14199378364527    1.37039439748437
H          -0.83637758203222    2.25819054524183    1.66927000980645
O           2.18130713506969   -0.30908925617328   -2.09959638220999
H           2.09979333633689   -0.04780327037679   -1.16271587271631
H           2.49638472741318    0.46351467072806   -2.57152172563601
O          -2.40166021780276    1.66259911527309    1.89144887308511
H          -2.83064157630883    1.58642676106355    1.03452617226140
H          -2.02521444147376    0.78969309871167    2.08998682429497
O           0.29216619900977   -2.38194576814064    0.33312151946299
H          -0.05153928270361   -1.75163240747182    0.98922311986060
H           1.24880096119318   -2.34981080616004    0.41287838736643
O          -0.33999249482072   -1.10382629470875   -1.89847402635525
H           0.57109244029866   -0.89520866096430   -2.21411544589058
H          -0.21318488776010   -1.78488230772001   -1.19395993851604
H          -0.64513769549805   -0.00597927637605   -1.13651083691337
