    19
        -40.92003324
S           0.06963600919548    0.71166829870366   -0.51258026883332
O          -0.87339741002028    0.73302679854636    0.57696159340657
O           1.08459356812251    1.84843370638280   -0.37055243890502
O           0.76639195624432   -0.54724499866381   -0.63077316288483
O          -0.62216463134878    1.07090414467321   -1.82914234557703
H          -1.33407926746211    0.37793563966865   -2.06737232580413
O          -1.45373093912202   -1.96328799891762   -0.07036007351817
H          -1.76025065320858   -1.37153125505905    0.62418772715029
H          -0.52554312440816   -1.71200932630255   -0.22060133213428
O           0.75468133455709    0.47767006858209    2.68929322656722
H           0.05683014382923    0.54164653395208    2.00890357754147
H           0.59169247853856    1.18853455403677    3.31262248771457
O          -2.25144163894599   -0.82426613321468   -2.30242496340847
H          -2.10322314941937   -1.36024938711331   -1.47957316343301
H          -1.93500585929683   -1.35577379578604   -3.03708186542927
O           2.78590911383711    0.53777877339820    0.95740011099288
H           2.22285349693772    0.46363599975726    1.76067408905603
H           2.63519503389741   -0.27494762464764    0.45967386436486
H           1.89105354801512    1.45807601197394    0.13074526319958
