    19
        -40.92079114
S          -0.82866073958379   -1.16329350827613   -0.40911173642390
O          -1.47953344913601   -1.71231920212600    0.75237978376538
O          -1.38033452714450    0.13491815180111   -0.80163330165284
O           0.62330957741737   -1.10702429838537   -0.31100397991282
O          -1.12112577208934   -2.14332040995756   -1.61706618343001
H          -2.06362707752054   -2.27099767473102   -1.57406126021383
O           1.13080958135895    0.88758897080523    1.38328799699353
H           1.16899856897629    0.02711398531550    0.91863350566919
H           0.34652700300498    0.80086768314553    1.97444052226465
O          -1.14103124991152    0.20938150601991    2.53522869389049
H          -1.36858957999741   -0.49816502902908    1.89383062278621
H          -1.25858975719366   -0.17267170993536    3.40701251391461
O           1.81333756859679    0.42870047740694   -2.07315875358235
H           2.75980744912281    0.37464915889127   -1.92657108228544
H           1.40535356540990   -0.29997321342630   -1.54810524377030
O           0.28819063766017    1.96058252042058   -0.70278690993200
H           0.94847327284335    1.56743734002037   -1.36604692737211
H          -0.52438749983876    1.29401891042397   -0.78405555969224
H           0.68107241800180    1.68250632162471    0.24878729894947
