    19
        -40.92044771
S           1.51925664876845   -0.24195736232942    0.42751146985795
O           1.78428780141573    0.15049439480772   -0.94295069490181
O           1.04295236543669    0.88358527164412    1.22786491034961
O           0.62683099740486   -1.38315877518439    0.53811109599575
O           2.90451794778178   -0.70360006817729    1.03857917378163
H           3.53526662615701   -0.11767250566341    0.63111570971046
O          -0.00720515704895    2.01178871552616   -1.01144516748349
H           0.22721197868737    2.29850601639858   -0.11849073812962
H           0.69789156983455    1.34575485893937   -1.21787735961906
O          -1.99499140508099    0.53491019806339   -0.62270479836205
H          -1.23781955355384    1.23095142312379   -0.87182297878162
H          -1.70263988896717   -0.33892420625758   -1.07609793192093
O          -0.97469622333320   -1.62182263629225   -1.47684934347480
H          -0.24930459784814   -1.60678310345923   -0.79917364971194
H          -1.39358415841153   -2.48238188372582   -1.41491919528291
O          -1.34255013853329    0.06433416259295    1.76387029144695
H          -1.13661417190624   -0.87700659650239    1.79764491343392
H          -0.44398848629682    0.48676157458994    1.72250913288938
H          -1.85482207234321    0.36622052896162    0.40512515154318
