    19
        -40.90202604
S           0.64427657768256    1.05612395713874    1.26820475809818
O          -0.20961042706236    1.04303374100250    2.41413055229376
O           1.34600825165329   -0.13924341995472    0.93851743307672
O          -0.14454980663450    1.56789910951525    0.04983194586888
O           1.72267398607316    2.18244154368306    1.46363553017866
H           1.33512599847894    2.89176376903492    1.97306148532836
O          -1.34936700224283   -1.26833114381035    0.69717147986753
H          -0.90586945619794   -1.36695494309691   -0.16588653712403
H          -0.65209848170792   -1.28675602283018    1.35719579661243
O           1.86763814717750   -2.11499169685476   -3.51675633151822
H           1.89201680242446   -3.06525828200083   -3.39535656860791
H           1.31905725779875   -1.76420091582187   -2.79995996573241
O           0.34547668925890   -0.92998116724395   -1.42971948086147
H           0.94453559102158   -0.72810775420682   -0.68896191880187
H           0.12682145571112   -0.08453520385802   -1.83090171679522
O          -2.46680392040954    1.10996333410534    0.84729645851503
H          -1.15918094860592    1.47405137733844    0.28125736888104
H          -2.33727975384654    0.13541095528000    0.75320154061882
H          -2.31887093060903    1.28767277270002    1.78403815011012
