    19
        -40.91117803
S          -0.20232412375290    1.73096059295280    0.41704203883130
O           0.45076406800823    1.36335720877028   -0.81304855007211
O          -1.24284180867099    0.66131122169051    0.76844967739955
O           0.61467710413040    2.02307053038957    1.53726341074823
O          -1.10345683176230    2.97906729774316    0.10031934717656
H          -1.45137865848110    2.89622283131090   -0.78646196251283
O           0.53614059435607   -2.51669064180913   -1.41720714721057
H           1.02247335863694   -2.73330633673473   -2.21397479173062
H          -0.17489389637385   -1.89663729525329   -1.68275342248448
O           1.66316303222741   -0.86386412123058    0.38542726720075
H           1.52817255920236   -0.04155583910744   -0.10197195894793
H           1.33777443112976   -1.58244665428061   -0.20186827670283
O          -1.21671254068234   -0.49826636362174   -1.85671302798163
H          -1.79681499489347   -0.53947847735719   -1.09086782447219
H          -0.56051604075957    0.18984158838498   -1.64994059855345
O           0.10195069458490   -0.56896138226165    2.42843784805080
H          -0.78922195183019    0.06751158453049    1.53967294204821
H           0.78472935712563   -0.84965756827457    1.74836314989913
H           0.49831565784546    0.17952181413504    2.88983187929290
