    19
        -40.92217275
S           1.09123121029932    0.05089648655095   -0.84464308340384
O           1.12775382457866   -0.18710250925755   -2.25901545505486
O           0.35087239035242    1.26636792844434   -0.48249419191990
O           0.67446404325508   -1.07340220350955   -0.02534999529031
O           2.59662541280368    0.33867552353217   -0.38615281667131
H           3.03811884796709    0.63236906965795   -1.17761483876934
O          -1.55554804700292   -0.07027194693452   -2.09321421697003
H          -0.62023878603800   -0.23150212143444   -2.31016870680518
H          -1.66666396427526    0.88257266229696   -2.13402245934990
O          -1.98452659265045   -1.15268483359974    0.31196136582103
H          -1.10295464069592   -1.56475706948769    0.28123905134000
H          -2.10759936001550   -0.82618757272964   -0.60671819016927
O           0.99827181946862   -0.22526874764971    2.42613084657672
H           1.01644890963713   -0.70823240909976    1.56803267513669
H           1.80386017577990    0.29450818727850    2.45520915008207
O          -1.10927715879096    0.87615830106001    1.47562428104971
H          -1.62476047302245    0.02705989838120    1.07878466563852
H          -0.38964650621258    0.49690178418492    2.08245210265860
H          -0.53643111553369    1.17389958233040    0.63995981609942
