    19
        -40.91893412
S          -0.70115933840128    1.43081504565220    0.68946630725687
O          -1.14987684345302    0.96680022662605   -0.60871711703878
O          -1.49087285664892    0.97852963791448    1.80678366475476
O           0.73234912748950    1.16256670530486    0.87944159187986
O          -0.83508530202797    3.01213047388001    0.65692227481245
H          -0.92451355315487    3.23706985154438    1.57808183871035
O           0.36562080045748    0.07649002383476   -2.51143379027594
H           0.56568367150111    0.80274630683435   -3.10484982730467
H          -0.30950534162650    0.41867861585421   -1.86974268744299
O          -1.48655380248733   -1.43678081778088    0.74403947164062
H          -1.79893988514324   -1.14046576885200   -0.11612907593109
H          -1.54599437563799   -0.63888501445811    1.30795790767506
O           0.92951225296385   -2.44043137463577    0.56865348152986
H          -0.02102791643452   -2.15235254775268    0.62928792662111
H           1.23190847701017   -2.55302500100241    1.47200627225450
O           1.92975653301848   -0.41954493591928   -0.57529390651873
H           1.41372700479625   -0.30383806047959   -1.45359334616930
H           1.48373204465616    0.31252485687245    0.06526755537924
H           1.61123930315921   -1.31302824341881   -0.15814852174437
