    19
        -40.91810106
S           0.32342748865150   -0.54320357235905   -0.86672382669816
O           0.77611359300227   -0.23971673516461    0.47888270469033
O          -0.80189025256571    0.44874375453109   -1.23102045625971
O           1.34061880144197   -0.52877352149812   -1.86102528153153
O          -0.38529451761487   -1.89982542138870   -0.85301192070028
H          -1.16791582180090   -1.89258329457420   -0.20585620796875
O           1.61510902458324    2.30604200901209    0.15535247872655
H           1.12728853062727    2.81382535180385    0.80716704616246
H           1.45345386004260    1.36704357546946    0.35860592380156
O          -0.60392709173357   -0.82873144959491    2.66954402249376
H          -0.05510087252228   -0.51309874175019    1.92166251546864
H          -0.01278654405873   -1.31705402459984    3.24581244906153
O          -2.24103977032553   -1.94369404657295    0.90419570858834
H          -1.78649395075238   -1.50216307253148    1.66026793553786
H          -2.42420142211085   -2.84740363957763    1.17182398765482
O           0.73368973708495    2.10823409361110   -2.36811785708778
H           1.16025738630228    2.41732523274273   -1.54006063975877
H           1.29816737019635    1.39599359355936   -2.69597219549441
H          -0.34947555846050    1.19903988888588   -1.75152639668501
