    19
        -40.92008983
S          -0.56960296207536    0.39980496251777   -0.41270682653840
O          -0.27162373894149    0.73053119422319    0.95306430632887
O          -0.40653020446484    1.63454683919718   -1.30366140001119
O           0.23304331247331   -0.68354044677551   -0.93960439611591
O          -2.05361046987971    0.05320114741607   -0.56160017570387
H          -2.34290092500370   -0.37244083344289    0.33070318657329
O          -0.61269815434545   -2.75266375531854    0.58151804254867
H          -0.17476732615722   -2.08744083488773    0.02001507729140
H          -0.89747888707445   -3.45773890612851   -0.00356220900411
O          -2.29774573469531   -1.01326200059924    1.70766161392832
H          -1.67089703110984   -0.39654235956938    2.10696592468402
H          -1.77113118238952   -1.81285930914645    1.48416989786833
O           2.70078594391281    0.42021199013984   -0.91168724531750
H           1.88598517339698   -0.11442279813628   -0.90880391877168
H           3.07119517311970    0.34660433558122   -1.79369569165103
O           1.50994608469763    2.63336751102657   -0.00897073224283
H           1.15869046000323    2.31252292538486    0.83151940908697
H           2.16735281605657    1.95900033710138   -0.29163595498016
H           0.34198765272632    2.20112000142955   -0.87968890797447
