    19
        -40.92079057
S           0.77536636732941   -0.99523365508221   -0.78504510822585
O           0.57008461141904   -0.75221737436647   -2.18955927196142
O           1.59413715052813    0.03922335707153   -0.14966097514969
O          -0.44982734889825   -1.22934203070529   -0.03338235154113
O           1.59948338020475   -2.34014438782886   -0.65549260244742
H           2.33857920891239   -2.20285089501777   -1.23978029281979
O          -1.61441845465135    1.16086621229325    0.15947206421913
H          -1.47404582827493    0.19978830925838    0.03941931059187
H          -1.32955212769923    1.54950355771737   -0.70084377712319
O          -0.22302887662628   -1.04651325282783    2.57315146274993
H          -0.27832067857938   -1.31817574561147    1.62655383675759
H          -1.07888584665697   -1.23670006601503    2.96252821087888
O          -0.51578759542049    1.65708556801521   -2.18426782267120
H          -0.04061552790889    0.80065757013304   -2.25226673913096
H          -0.96911473289780    1.77777282393412   -3.02079038453626
O           0.38971971663754    1.25603874530546    1.63797956417099
H          -0.50834354805354    1.38923968168967    1.07781351016615
H           0.19463243633544    0.45465772697183    2.22948095158866
H           1.01993769428064    0.83634385512379    0.90469043462978
