    19
        -40.92343661
S          -1.58823395280998   -0.40448813126643   -0.39993556031384
O          -1.73750858347698   -0.28487662282787    1.03478411424500
O          -1.59328910732695    0.90181036703950   -1.06004609745034
O          -0.42518469847954   -1.19260565871440   -0.77596081079382
O          -2.84426364217634   -1.18104233838938   -0.94843820569924
H          -3.56654822438253   -0.61412616406748   -0.69663015516996
O           1.48349505735359   -1.36074121857888    1.06136458896365
H           0.73820521290492   -1.43483728498065    0.42506106177370
H           1.40070501635778   -2.10501666349803    1.65902186898817
O           1.83409896800159    0.03308345577189   -1.49332578543019
H           1.01791623386692   -0.50911486962281   -1.50189337649682
H           2.39827291869833   -0.37489951532153   -0.82715472580245
O           0.41538273693860    0.99324070454223    1.79187329142398
H          -0.48808960121716    0.60664187337628    1.69993192666636
H           1.00806470702304    0.21503684958785    1.73019534504846
O           0.56250671728811    1.99396083004531   -0.48518544239724
H           0.56784069237238    1.70175630565087    0.54373475357656
H           1.19914695381818    1.34081783688773   -0.95886466433724
H          -0.38251739484105    1.67540026435553   -0.79853213646847
