    19
        -40.92071441
S           0.06119965941128   -1.46936182157768   -0.18718452975338
O          -0.57374923230542   -2.28525228734656    0.82201964537940
O          -0.85610981842347   -0.65377884357514   -0.94918319631601
O           1.14049028923053   -0.63896530922128    0.38342774390872
O           0.77068238289547   -2.45803931319375   -1.19500872233601
H           1.00666529850684   -3.20570397838191   -0.65326664052334
O          -0.48473862291138    1.94696005284020   -0.98466373948287
H          -0.77595149840907    1.03427272307670   -1.21404764197487
H           0.44739428137963    1.97381212743950   -1.28790290999009
O           2.06745555019244    1.24474697828713   -1.28657453502685
H           1.84074916797950    0.45825874647107   -0.75152921771139
H           2.92179871464994    1.54970517539825   -0.97760873500137
O          -2.14616037698053   -0.33313939053503    1.57767348905672
H          -1.64400904458063   -1.17094337400462    1.44018376084009
H          -2.68609370464182   -0.23370526278749    0.78804151060307
O          -0.17890482757419    1.26168446998613    1.37376534216489
H          -1.03798401900413    0.73607751197763    1.58928345223933
H           0.48159758373477    0.51819077990886    1.11969530272895
H          -0.35433181312895    1.72518103522464    0.39287960120633
