    19
        -40.91618788
S          -0.75171517794054   -0.20717596334776   -0.35108910974628
O          -0.11934015740252    0.59748929471175    0.67023977692161
O           0.07995019258267   -1.25183579508115   -0.87159801125755
O          -2.06434082564788   -0.77537499778195    0.20433089021354
O          -1.27383408586601    0.69135725743517   -1.48045464913630
H          -0.51121702931661    1.10168285248611   -2.00998150299578
O           1.80738573059866    2.18983338810957   -0.25093062289813
H           1.19224783724725    1.55820758003048    0.17465263886361
H           1.83669496814210    2.96173395204568    0.31770079238787
O           0.59102770560594   -2.82792769863462    1.22266832567584
H           0.55987998429900   -2.29229442752182    0.40481187309322
H           0.41539080493135   -3.73288947360687    0.95729734806367
O           0.67422245499380    1.87676451873304   -2.63137135765126
H           0.40230545269366    2.74582110832431   -2.93682207611767
H           1.25444141940837    2.01534736185734   -1.84741481065077
O          -1.12563714225727   -1.25500919508564    2.50363316216644
H          -1.86414272530742   -1.01079681359849    1.17824424633562
H          -0.48380869706107   -1.95079273601101    2.22918320810525
H          -0.61951070967181   -0.43414021306192    2.51689987866083
