    19
        -40.91535447
S          -0.07858774220555    0.17159776705487    1.99314780268371
O           1.08458389554831    1.10397335761161    1.70043033816379
O          -1.31339468400217    0.74074250089658    1.54185993614177
O           0.21008103762980   -1.15775716873257    1.54342765573942
O          -0.09494129013522    0.15158492649355    3.56227892173287
H          -0.48499150963603    0.98250759211709    3.82359093525094
O           1.05353439389953   -1.59912362975072   -0.90461081586620
H           0.70375809732920   -1.52954639373760    0.01306380549115
H           1.64814622595354   -2.35152554977719   -0.90632350769540
O          -1.23743780897150    1.37941233790579   -1.10850459146750
H          -1.46492428614719    0.54618259265202   -1.56528618893440
H          -1.49113293935954    1.24988686470420   -0.17973485756425
O          -1.28054942273155   -1.07073075466288   -2.31124036669224
H          -1.07567070026337   -1.06048039260930   -3.24775695318425
H          -0.48539087889630   -1.38825586711818   -1.85123452175078
O           1.30227542391626    1.12406017861792   -0.75124634753690
H           0.35210013823455    1.35785528617620   -1.00079013667316
H           1.24856258928181    1.16947519900333    0.62244213371318
H           1.40397947070618    0.18014115312709   -0.97351323151026
