    19
        -40.92011115
S           0.55955316603083   -0.92051831034806   -0.10471589719796
O           0.18053580631733   -0.28380948703862   -1.36911263030300
O           1.06342634957457    0.10377178468748    0.83359968829049
O          -0.50774352663398   -1.68834026369075    0.48405010336178
O           1.74243863712021   -1.88420190435735   -0.39370378634466
H           2.33059557570822   -1.37497561802094   -0.99230863426631
O           2.64081869595883   -0.27544664604239   -2.27358639729768
H           1.69558260835542   -0.06596665516026   -2.12925052525374
H           2.70327050612954   -0.68654690616469   -3.13885076073222
O          -2.07946000212754   -0.61291966663056    2.26215099082345
H          -1.86354176944824   -1.03412029271268    3.09677976953683
H          -1.60440548915703   -1.12942804434508    1.56360963189285
O          -1.46639235734245    1.68366530652221   -0.86398328522362
H          -1.14974527432056    2.42603061296088   -1.38293047919837
H          -0.93140012333214    0.89961593704561   -1.14356209486147
O          -0.81087062067488    1.47915274537432    1.59091895529325
H          -1.41774661750331    0.74059184355094    1.96798484026094
H           0.10164720103649    0.92105840876071    1.32379152436961
H          -1.18656277562826    1.70238714561316    0.66911898682862
