    19
        -40.92136405
S           0.61604357295302    1.22300945416013    0.21730493267049
O           1.34930629206955    0.08751311012251   -0.36963349949054
O           0.47091607885802    2.31803939455885   -0.70937583816825
O          -0.62360527204012    0.78073701274563    0.81508610752691
O           1.53522478678868    1.73617344388219    1.40577060225421
H           2.08988610413038    2.39853253162862    1.00335523560569
O          -1.26935626331882   -1.75401616073674    0.65700766350647
H          -0.45806884381404   -2.07672370847627    1.10798852157843
H          -1.27423962540866   -0.79676723828364    0.88714104944622
O           1.19887937463673   -1.66511386310189    1.65820736400916
H           1.29087744425849   -1.15723439875967    2.46615915760589
H           1.42836791446368   -1.05745002730855    0.93002950818082
O          -1.53465675552335    1.07122504638779   -1.87837799337946
H          -2.22034231244818    1.18321916373261   -1.21397891283442
H          -0.79805884638086    1.65709147825982   -1.59069483384492
O          -0.41322745571922   -1.20399544564409   -1.60228675304805
H          -0.96296328993965   -0.38170183861165   -1.86784231457150
H           0.44283795599495   -0.77432481050015   -1.23170817366497
H          -0.86782084959758   -1.58821313406764   -0.68415181343999
