    19
        -40.91346196
S          -0.60891290612292   -0.26613424684492   -1.93721288344113
O           0.89384217023349   -0.15918609154233   -2.13798993750419
O          -1.01426862852940   -1.63010399171121   -1.79888398433390
O          -1.04682084064959    0.61933173167046   -0.89377051200081
O          -1.16636476105634    0.28768273114211   -3.29629612294735
H          -1.03640749801664   -0.39446019311485   -3.95215509835723
O           0.63606592801463    1.96867535926922    0.90168383126816
H          -0.07984472599286    1.85469585421132    0.26151467326252
H           0.27068058927401    1.68191587863137    1.76013471006072
O          -0.57221409086213   -1.30008670453191    0.93910973865292
H          -0.94221682996351   -0.56843292353995    0.41317078090012
H          -0.82782997849337   -2.09251492557058    0.45718544644778
O          -0.27957416169799    0.52897587290382    3.05289694532625
H           0.35808944749594    0.22887591772293    3.70277524743894
H          -0.51356267908715   -0.23838593224276    2.51174694022162
O           1.81353370256298   -0.22080265490541    0.15192339814218
H           1.16248997686974   -0.81002571634861    0.57920332546508
H           1.39359884296823   -0.19004954348666   -1.17815240457434
H           1.55971643303416    0.70002957828591    0.46311590598350
