    19
        -40.91898026
S          -0.45187261376852    0.86310547268547    1.30840283665043
O          -1.08708761581437    1.08500197278631   -0.00260473430902
O          -1.29815582974580    0.12610604749745    2.20958868187911
O           0.87279076581471    0.29046541775005    1.13120567376767
O          -0.23554103051079    2.30472008353572    1.92589345412286
H          -1.04024695334433    2.49974799937757    2.39883908293895
O          -0.29981848432542   -2.08911424260785    1.10784354806078
H          -0.93194198914614   -1.69985591108269    1.73595386302064
H           0.46243815972811   -1.48537148756360    1.18282643075638
O           1.02710805951170   -0.85917954018044   -2.37285907827347
H           1.26508520876717    0.05534229430502   -2.04650902550065
H           1.73234562525858   -1.44197804424466   -2.08380351002789
O           1.44321311049271    1.42766543197189   -1.18686347714300
H           1.41776475287762    1.07398538778422   -0.27364295650780
H           0.62958088689678    1.93426040344503   -1.27082839585549
O          -1.13069020316772   -1.14040305871381   -1.09242392592148
H          -1.22843309419810   -0.16172750941474   -0.70458224735245
H          -0.28838187267642   -1.09381790427079   -1.70768971919849
H          -0.85815686266342   -1.68895280301145   -0.25874650121100
