    19
        -40.91893413
S          -0.28890215685979    0.10361274986047   -1.70804007414393
O           0.70578187333902    1.01853259664165   -2.20840116929113
O           0.23423668616087   -1.12418022053372   -1.14180836806372
O          -1.22458935856174    0.75661005584481   -0.77984441576036
O          -1.16690554103536   -0.33243811589841   -2.95624867447020
H          -1.16915351037528    0.44996208022813   -3.49917754921158
O           0.85657609726495    1.36321976051415    2.12994764338904
H           1.42094847039735    1.07113356867065    1.36385650210407
H           0.77739784233088    2.31616706867013    2.05445539531203
O           2.12340036141125    0.58059879157726   -0.02698725326398
H           2.09873069878044   -0.37729133893145   -0.11208600306307
H           1.71961774735784    0.90480435023766   -0.85783742052488
O          -0.56010568215383   -2.23871850635021    1.05790375931368
H          -1.22277622880876   -2.89745743715983    0.84230681611291
H          -0.19122953921756   -1.92102284715146    0.19335664475170
O          -1.28701765461061    0.13202375508295    1.59922328437840
H          -1.34386676791982    0.42391709487112    0.57134368564270
H          -1.03906443465477   -0.86109392544173    1.54412214116657
H          -0.44307890285625    0.63162052929911    1.93391505562582
