    19
        -40.92343665
S          -0.07051967592332    1.37125745551400   -0.97996422502225
O           0.93960990710397    0.33189891867357   -1.10034146241739
O          -1.41151143362976    0.87010104510944   -1.19354866831534
O           0.04612214101353    2.09542666743031    0.28672698804625
O           0.23512291113956    2.41795006828680   -2.11701932957611
H          -0.43877165798424    3.07671197104584   -1.98181278248693
O           1.93158368613215   -0.81714839399608    1.09464610589490
H           1.84058409290555   -0.31003711907994    0.26120147852969
H           1.69362339872868   -1.72203067909066    0.86435550465455
O          -1.75583009876517   -0.85637972648780    0.74125132403566
H          -1.85928266194544   -0.18876039016409    0.02173151508881
H          -1.22284030258457   -1.56573260452468    0.32486483760587
O           0.07342287719623   -2.15171776903714   -0.73936044118173
H           0.39029651391600   -1.26431544565909   -1.01824075188083
H          -0.21836842060274   -2.59519481136176   -1.53701267353855
O          -0.07410620524402    0.39258224188258    2.09074993036688
H           0.78879933918718   -0.12293555958394    1.87637393843321
H          -0.02360674545281    1.21858934964939    1.45143720929324
H          -0.86432767519150   -0.18026520860765    1.65396149247026
