    19
        -40.92246920
S          -0.26157604305311    0.10564803449806   -1.03275578810628
O           0.57220863642175   -0.99788975868402   -0.38728334940525
O          -1.65475724783039   -0.11423187471646   -0.72122544710826
O           0.24531601741705    1.39631162076272   -0.67637300094058
O          -0.02859307566958   -0.13339684840698   -2.54067483419188
H          -0.45698768618555   -1.00918376850871   -2.71208429221414
O          -1.39620358720238    0.85040850350889    1.78712954329203
H          -1.19986726459651    1.77717408786684    1.62841931530320
H          -1.71026937566931    0.49504795676786    0.93802132633657
O          -1.34326019153813   -2.34919307266849   -2.18649943383883
H          -0.78514343077656   -2.88898793736667   -1.61966510306442
H          -1.84944097466799   -1.76476354905138   -1.59892890719838
O           2.14030747367908    1.80861950471945    1.18548982537446
H           2.99884433264280    1.86381098660480    0.76253671231664
H           1.47665619705814    1.83277955521032    0.47010155062606
O           0.92514755743185   -0.40916082823212    1.97875507893059
H           0.03418226082020   -0.02113844568087    2.15767342495524
H           0.76819502718805   -0.81069843599003    0.67912351305780
H           1.52524135456093    0.36884425939254    1.88823987591867
