    19
        -40.91814238
S          -1.40187909378354   -0.52617876632833   -0.93131344998482
O          -1.42049008142629    0.10555078694614    0.38437704304442
O          -1.72831640101619    0.33783144252538   -2.02788203796746
O          -0.14462015553793   -1.25909053819886   -1.12804610982796
O          -2.53706412810334   -1.63969957285543   -0.87124907633283
H          -2.86104904799706   -1.66637010825243   -1.76649174081842
O          -0.07405520352021    2.09199938374317   -0.77766449416031
H          -0.45859605882334    1.83031725838313   -1.62479740835803
H          -0.62517572435374    1.61462079115136   -0.13531757462467
O           0.03173194999032   -0.71416085061363    2.36689805439609
H          -0.61404742722170   -0.34943641385536    1.70704958827075
H          -0.39118738638708   -1.47873365888896    2.76204991170927
O           2.33589761850735    1.35354252507923   -0.05185326567546
H           1.48103764087548    1.69034621437241   -0.43092267170870
H           2.53669509857871    1.91708962291053    0.69816197874830
O           1.70291869702912   -1.04408748410326    0.48024176746124
H           2.06547866582884   -0.10054601581094    0.26583372888635
H           1.15863026337805   -0.96096446077381    1.34314950970642
H           0.94409078400343   -1.20203015542066   -0.26222375304870
