    19
        -40.91864549
S          -0.20970562934230   -1.15345426714910   -0.13425664316301
O           0.06920596364552   -0.38019971210955   -1.32145263364924
O           0.60651696970363   -2.29414507876179    0.09519540774889
O          -0.07064092562420   -0.18760087900255    1.09295973421212
O          -1.69651892436863   -1.50438639857659   -0.10437176101773
H          -2.18367036186613   -0.75683627356954   -0.61361145518149
O           2.62797792603459    0.33899632393861   -0.90302018420933
H           1.74953100701564    0.04898290226689   -1.21271923227697
H           2.71917344576488    1.25884395000148   -1.15961791783029
O          -2.51662945467976    0.51105691501036   -1.38556694568544
H          -1.69413973869754    0.50981558836915   -1.89363542331288
H          -2.40289500721473    1.20486135015811   -0.70021822679949
O          -1.76972699540543    1.95699955097550    0.74714652813191
H          -2.33276186439553    2.04931467112683    1.51817495800299
H          -1.09270940713108    1.29849046836256    0.97182231762390
O           2.35000882229006   -0.69178222867443    1.53841963249979
H           0.89857434682976   -0.31015967853366    1.42387953101537
H           2.25392514607170   -1.62806994107060    1.32154961147727
H           2.69448468197308   -0.27072727788027    0.71932273120178
