    19
        -40.91418238
S          -1.18817740890344   -1.28170086526107   -0.42473771396514
O          -0.11510810564916   -1.23344159163397    0.66236610572526
O          -2.45931254986121   -0.96721916306051    0.14227493872022
O          -0.74655785477591   -0.54282683922580   -1.56540046760125
O          -1.21772082952886   -2.80530015949621   -0.84284353303989
H          -1.82084636985597   -3.26195609070645   -0.25930481861285
O           0.22164766564465    1.46515407159952    1.63879473307569
H           0.08036363126858    0.52092542542947    1.76529872105831
H          -0.51708205208054    1.76174716237322    1.06926611603735
O           2.40048094524136    1.54562496111806    0.14321325222861
H           1.59955496800635    1.64139824059806    0.71914544307033
H           3.15995416862562    1.67861001034231    0.71248059153298
O          -1.77470086731212    1.66658831275336   -0.17417332923317
H          -1.38735508003701    1.39806083354814   -1.01382414115241
H          -2.35392222771600    0.93581939182894    0.07962532253423
O           1.84505876740036   -0.82257694867957   -0.76634886370399
H           1.28561347156162   -0.66468077451794   -1.54041291192477
H           2.16832344037250    0.08154665044494   -0.47179078777060
H           0.81978628763108   -1.11577260748309    0.12637135301389
