    19
        -40.92217232
S           0.49952036700437    1.00600578806765    0.80366267333343
O           1.31795450848673    2.12092945628146    0.42234177285117
O          -0.86102888667330    1.07465103225869    0.25464008912749
O           1.08013121389056   -0.30742922082746    0.58803552774186
O           0.30419826180290    1.09675382647945    2.38888107091808
H           0.44156733657478    2.01610839495895    2.59715556577807
O           0.55431164654049   -1.26111454881020   -1.86326765401565
H           1.08512597124843   -1.21663460544390   -1.04846611966766
H           0.63373811366235   -0.35221403824518   -2.22852169283448
O           0.68803274636082    1.39776966704133   -2.09246361705716
H          -0.16058764687413    1.84096697124921   -2.16668353682729
H           1.08312356365034    1.73141870690442   -1.26767717209379
O          -0.65862572090043   -1.95026866301042    1.64190678421594
H           0.13807499450822   -1.42888714895091    1.39022437638825
H          -0.99496277969106   -1.54947091143601    2.44573029881047
O          -1.59399864216575   -1.12884689873208   -0.59633408797961
H          -0.75908565349949   -1.29633866963903   -1.24314606059529
H          -1.39153108242016   -1.65299785268353    0.24869712696748
H          -1.40595830151027   -0.14040127548723   -0.27471533504067
