    19
        -40.91344930
S           0.55523602618109    0.95219776002279   -1.78866773303938
O          -0.42775097014498    1.96744993676301   -1.22434978484414
O           1.29736300779620    0.35487579982698   -0.69885937009083
O          -0.05343389186860    0.03281615126007   -2.68312368601787
O           1.53737791496217    1.86773879556258   -2.59620280990786
H           1.97350645838552    2.44325926753015   -1.97047789871909
O           0.59167244698677    0.53108189871036    2.00103768352974
H           0.52683484377980   -0.40111286011751    2.28277542929154
H           1.13251841649706    0.52068543929960    1.19856656409550
O          -0.57477549832383   -1.57441597757564   -0.46927242072797
H          -0.81541671406522   -1.74286154499881   -1.38509990515409
H           0.24818941191179   -1.05567282395628   -0.52489809315400
O          -0.00609220509160   -2.13585011671744    2.21919259819780
H          -0.21563476350756   -2.20217108448176    1.27624688960340
H          -0.78786085888523   -2.41396342282152    2.69908309041502
O          -1.58072007642264    0.73900790009292    0.58382193755994
H          -1.53172207399845   -0.17356835726362    0.23982808584662
H          -0.86058853662277    0.78149234965991    1.28015121785703
H          -1.00870294757771    1.50901088916756   -0.43975181473723
