    19
        -40.91403373
S           1.41958635982079   -0.23036226748605   -0.36166494165172
O           0.73771376747577   -1.43115222923382    0.01554265004686
O           2.59956184721352    0.07527571474339    0.38757163570618
O           1.68127556177127   -0.19034307910814   -1.85801785812577
O           0.41732980732390    0.98687340493083   -0.21597308548160
H           0.36043033697015    1.21504115456766    0.72966862224109
O          -2.37579249646438   -0.43745542581717   -0.69906999234289
H          -2.00027712371012   -0.38547667724211    0.20296246314895
H          -2.75891652584793   -1.31486269100846   -0.76424581132872
O           1.08460976157519    1.03986893767596    2.36896645023912
H           1.83885708381494    0.62837771345672    1.90696350751213
H           1.44224472626250    1.76026631462515    2.89389615128198
O          -1.18225821998031   -0.71084790888650    1.72705517110635
H          -0.70204634210161   -0.12067004047638    2.31507699554197
H          -0.50062983200115   -1.19313361537111    1.22571796789746
O          -0.69086774054305   -0.07854306583189   -2.70869491364818
H          -0.82374038613671    0.84405098774754   -2.94056111863208
H           0.74606060148421   -0.21170643786591   -2.29021216974004
H          -1.29314121692174   -0.24520078940308   -1.93498172375612
