    19
        -40.90997414
S           1.40869927432925    0.55739264606415    0.31183672673241
O           0.88198846491709   -0.75724797548618    0.86733056308632
O           2.48867009479171    0.32902382022929   -0.60084060274337
O           0.33415173347041    1.36795343291357   -0.17841401566110
O           1.98205217744367    1.24779516238373    1.59385803230686
H           2.79557830934432    0.80047196042711    1.81697791524830
O          -1.45746826592746   -0.34670520174059    2.58764387780181
H          -0.57812743015123   -0.63475525397226    2.32916706409125
H          -1.92034881179779   -0.14141744081075    1.76613021287401
O          -2.16983508177456    0.45734525039276   -0.08957187907763
H          -1.31269425811442    0.92955549999781   -0.09193504049282
H          -2.85630842654779    1.12069740068804   -0.17596419968907
O           0.70833562647961   -0.20953406448566   -2.54377888901219
H           0.32219714979860    0.66694464434125   -2.61844811921890
H           1.53605201994919   -0.08892760755343   -2.04783393487176
O          -0.66715531193897   -1.65878604573229   -0.81840358929545
H          -0.23741623120374   -1.27546847021483   -1.62343862423731
H           0.20050070711874   -1.24789244187642    0.15661645539930
H          -1.45887176009500   -1.11644529443901   -0.64093194367842
