    19
        -40.92343623
S          -0.29807675934013   -0.66382379773451   -1.52184199282397
O          -1.69068519819832   -0.32045069056899   -1.23044863033648
O           0.47025822430442    0.49425454464786   -1.92632583771253
O           0.31896348841331   -1.38699291861961   -0.42118206093224
O          -0.33389487033263   -1.66172886838109   -2.74040119895122
H          -0.74394696397945   -1.14252053024626   -3.42508400311350
O          -0.54653204427063   -1.00027346077664    2.07366601902127
H           0.29909910371187   -0.72249313916968    2.44277134318173
H          -0.32574978526898   -1.40814709101819    1.21054184093361
O           2.01029894342678    0.01833552628867    1.06551818361692
H           2.92284866568316   -0.01436657031059    0.77536418541759
H           1.50534286317596   -0.55930114767870    0.45134836099865
O          -1.67637601558423    0.95559847067773    0.90019022754182
H          -1.84115110560351    0.45247785709858   -0.00164340140773
H          -1.33836905104623    0.21258260418959    1.52462842014246
O           0.45796873421180    2.02907335078439    0.19217767598221
H           1.13603540731138    1.51565997978011    0.67931689849385
H           0.49066495118115    1.65331732897358   -0.71984719826371
H          -0.81669857775517    1.54879857204881    0.67125116829848
