    19
        -40.92079078
S          -1.47089714090533    0.03655131659876    0.20921771350318
O          -1.82087879537156   -0.89052960873829    1.25420142127276
O          -0.76262279376973    1.21343395761045    0.71650636843896
O          -0.75607846456202   -0.56403503517937   -0.90856755798900
O          -2.82250130897249    0.57785398397529   -0.41111564059934
H          -3.31631674761747    0.86220056684355    0.35165421276421
O           0.52750693904799   -1.41298359684032    2.34780105265866
H          -0.37750483395615   -1.19263972773464    2.03755743729967
H           0.45042681484669   -2.23717355653921    2.83209502991069
O           0.45445452361159    1.12392997459993   -2.50967435008465
H           0.87300113550782    0.62279849327233   -3.21249293131135
H          -0.15518649232532    0.50237990922329   -2.04586925396853
O           1.69803034675140   -1.04542096036473    0.01506136971800
H           1.48095979695108   -1.24569406119851    0.95583648573234
H           0.84115349542252   -1.14152452984244   -0.44784306593388
O           1.52439219380567    1.43121046070869   -0.20515316613026
H           1.26300886126418    1.48975356955013   -1.18426772322137
H           0.58546635351981    1.46401645338778    0.27259446906158
H           1.78358610676974    0.40587240068250   -0.06754185111606
