    19
        -40.92079110
S           0.41632894285399    0.05229058814500    1.42515093314821
O           0.87704747244710    1.18751505643258    0.62320711859729
O          -0.72554295624079    0.37838071428192    2.23981760331266
O           0.24374862121085   -1.13578867574302    0.60065894200467
O           1.60812188378250   -0.29857792449052    2.40579207529142
H           1.62048437466779    0.43721295662108    3.00991239298252
O          -1.41387072315191   -0.39441042641412   -1.35127310710636
H          -1.96542130837134    0.25602675179025   -0.85639315357622
H          -0.97852525230129   -0.91514550490167   -0.64625290297083
O          -2.46731348037450    1.22571962019470    0.44152315190059
H          -3.34254739967478    1.16687395648560    0.82922915376114
H          -1.83536976277847    1.00196499391243    1.15878753656951
O           1.98783772732903   -1.42472077411897   -1.33650705836207
H           1.46248128587113   -1.43847528738900   -0.50171783006779
H           1.78947028775623   -2.24222834850662   -1.79771976448212
O           0.74574635805748    0.76198322173327   -1.81156772394036
H           0.84921764371787    1.08609790331404   -0.81386395542225
H           1.36136814359825   -0.04486638829840   -1.83409893871692
H          -0.23326186839978    0.34014756696310   -1.78468450291665
