    19
        -40.91641692
S          -0.14232559313990    1.13003173946184   -0.23576752953891
O           0.47096915788575    1.19548566488841   -1.52718497862074
O          -1.07658923276544    0.03601267653677   -0.07547537502079
O           0.90619063090617    1.07519514072305    0.85838484045722
O          -0.88760669615679    2.46686821510280    0.06836786235759
H          -1.56181016497552    2.55596167861792   -0.63731683119175
O          -2.21294289039858    1.73285011651275   -2.08442152409599
H          -2.44688428427999    0.87481641659793   -1.71569296359746
H          -1.36847024200047    1.61270977714445   -2.53503450537423
O           0.88590234953871   -1.56176991359842   -1.09949857183298
H          -0.00431886158221   -1.29143227575192   -0.83394076258925
H           1.24395327571956   -0.79684827429960   -1.56254977448362
O           1.69728692009653   -2.35001062196416    1.36247313339737
H           1.47304285673333   -2.20374301101551    0.42023612162474
H           2.62178677709814   -2.11664838186337    1.46261206677870
O           0.00394604539881   -0.63583749608258    2.42041790072832
H           0.57295494864268    0.43329048169348    1.63092253280692
H          -0.79814039659835   -0.78045088214959    1.90256289205880
H           0.62305538988050   -1.37648105057681    2.18090546612017
