    19
        -40.91923788
S          -0.51487062963984    0.76326415333757   -0.31882432026979
O          -1.92550540580717    0.85507409599774   -0.48877986446357
O           0.20968912532135    0.06473240738992   -1.35280100005101
O           0.11689660406264    2.13673446296556   -0.10218320679976
O          -0.22267811221286    0.04384425342940    1.04036868509499
H          -0.99225382709171   -0.62399603461176    1.18386170530999
O          -1.57165169833659   -1.95173727310211   -1.48703421441728
H          -2.25248240574006   -1.59136800182286   -2.06022944542079
H          -0.81682594652979   -1.34059911156212   -1.55968831143367
O           2.50135504603119    0.07429058880422    1.54181536592737
H           2.65644206777793    0.46833919600434    2.40247341778859
H           1.54694573732626   -0.08495232449188    1.47331974605739
O          -2.23005227410791   -1.47767738552531    1.04384980464607
H          -2.89137435990445   -0.79656774952765    0.87861774438724
H          -2.04276829986808   -1.87706691280943    0.15979335054172
O           2.46778294710014    1.48712002276718   -0.73484357673508
H           2.11732457608769    0.82674326421361   -1.34842441184854
H           1.11425153045961    2.03507187882330   -0.34105331657318
H           2.72977534507546    0.98875047967730    0.06976184828390
