    19
        -40.91440008
S           0.79188502614467   -1.28011850538619   -0.75355881064942
O           1.25744928792567   -0.68867257829100    0.51577169105895
O          -0.00476151261440   -2.45757097218118   -0.57208609097081
O           0.20348099025626   -0.24433326584680   -1.59189585856042
O           2.11328444579391   -1.72723362501115   -1.51395957599760
H           2.28164073859454   -2.62816952328412   -1.25065657432785
O          -0.57472954142076    2.53258961447648    0.98141945306149
H          -0.33983226236826    3.03968747534887    1.76107847825098
H          -0.89566033107546    1.62921500168510    1.30886003202326
O          -2.27327460811390   -1.02226807967338   -0.40455062449714
H          -2.05514491374004   -0.47106895907489   -1.16172915260462
H          -1.64441757627875   -1.76261807581998   -0.44754673400383
O          -1.07931414495897    0.12125916078436    1.69893941073923
H          -1.71675971578907   -0.28071519365401    1.06848435790377
H          -0.23288813070793   -0.31696322539655    1.51217774923374
O           1.30604442342640    1.60491231441043   -0.37272116535279
H           0.53591608373621    2.11038092528985    0.16736030045420
H           1.49670968261373    0.74300207642587    0.18083947465103
H           0.83037204858040    1.09868543533455   -1.12622635034184
