    19
        -40.92267746
S           0.79338877762554   -0.09267539470462    0.70417847453381
O           1.74344910408937    0.18874542450146   -0.36194251038455
O           0.04924003199509    1.07444423846849    1.11971475422081
O          -0.12883751611275   -1.17577712213777    0.28053937392011
O           1.56513823229498   -0.63952148374767    1.93727000306096
H           2.06574864134385   -1.39928020164008    1.56500611429332
O           0.04098664421339    1.51860644288012   -1.84610333657224
H           0.80103486873521    1.05674199350884   -1.41817082093421
H          -0.07222582126797    2.33433883509112   -1.35044470358906
O           2.45179374040718   -2.35658509368533    0.16364616147570
H           1.58374661798363   -2.71760843121579   -0.04312050165259
H           2.51711601634502   -1.53080513339086   -0.34218603817576
O          -2.53156746932792    1.30094541221677    0.81008138870752
H          -2.97587575062975    0.88595862751151    1.55195574244192
H          -1.57346518082206    1.34898901409464    1.05073598617000
O          -1.79261851900692   -0.10551263289484   -1.17240330880725
H          -1.14426947427913    0.56152238811223   -1.61646193440918
H          -1.10772069017690   -0.69781841123371   -0.57032804246579
H          -2.28506225340133    0.44529150826779   -0.46196681182988
