    19
        -40.91416426
S           0.58427517564519   -0.47620967342895   -1.52931750850520
O           1.56447741272449    0.54157974934391   -1.71694808498133
O           1.08888855160913   -1.51287855378113   -0.53408416416715
O          -0.75145129130088   -0.08297537089191   -1.19349820578333
O           0.48427088478026   -1.28754169020867   -2.88134747965446
H           1.34490576120350   -1.26799632644587   -3.29539663736563
O          -0.19948208759379   -0.18163496052543    2.48601641390141
H           0.28204641793311    0.44826683474740    1.89688622224026
H           0.42830853782319   -0.44242579166878    3.16161650834856
O           1.04280719832728    1.47963132887087    0.82167247889229
H           0.30021781728138    2.05957626764086    0.56436212237274
H           1.46591645609460    1.22940090095967   -0.00922893737818
O          -1.34191975084936    2.38251331415554   -0.12953552402618
H          -2.03790951080431    2.21645324411425    0.50975941963636
H          -1.25623000933906    1.57447420799940   -0.66047313541353
O          -0.96809437058445   -1.98730206567768    0.76647420960877
H          -0.76793164963960   -1.37868072451861    1.53138889052753
H          -1.52860345987571   -1.47431272072725    0.17048511962475
H           0.26550791685069   -1.83993795003238    0.04116831195042
