    19
        -40.91955068
S           0.37798258094181    0.92288317465415   -0.60453309733367
O           1.55835529965458    0.02428214000691   -0.19092621205837
O          -0.60557604733584    0.10532939224215   -1.27645937807795
O          -0.10271230574085    1.67543452670229    0.50606987345506
O           1.04172335350939    1.86151218426029   -1.63214937900151
H           1.29342862589690    1.25543349251452   -2.37395660923046
O          -1.15962261829976    0.07360842103622    2.44769502101418
H          -0.91168302737101    0.87557875728764    1.96086310009883
H          -1.79855495914475   -0.38229294790241    1.86413492950801
O          -2.57290730864572   -0.85108327421005    0.33530287237229
H          -1.89485442817820   -0.58351376157307   -0.31025905124902
H          -3.38692729509064   -0.42243869744743    0.06480301214175
O           1.33191326292484   -0.26108881832198   -3.10004078668238
H           1.96799791540001   -0.81841555094669   -2.64307887835474
H           0.46445580694058   -0.45355223104915   -2.70810384575057
O           1.10274068517673   -1.08084168079885    2.01056235342492
H           1.39030311804446   -0.46760892217124    0.71415395059263
H           1.71308062335428   -0.74612896770003    2.67191605665014
H           0.19085670795839   -0.72709724662477    2.26400607847836
