    19
        -40.91271762
S          -0.38354920474560    0.29786613746663   -0.24233143993420
O           0.17777817322750   -0.74940703566609    0.58007812844684
O          -1.77198534594258   -0.13599829352090   -0.75198270699543
O          -0.46203685413486    1.58498418043252    0.36705514340804
O           0.44749026606533    0.38218123516072   -1.53853710954480
H           0.77011241460300   -0.57243891528994   -1.71798945815423
O          -1.19589232007070    0.07662718195352    2.75681760329328
H          -0.70481229593194    0.87922520704194    2.95038486481216
H          -0.65482359880753   -0.40621473104488    2.10875574210949
O           3.38566832754545   -0.03907991359543   -1.41174738720486
H           3.94792898328789    0.24438863378021   -2.13574328191479
H           2.65265284417854    0.58379312070961   -1.36233624177527
O           1.42038144436823   -1.95228830264126   -1.50148679643794
H           1.08383178387130   -2.00428227835633   -0.59314891154823
H           2.33677056014322   -1.63113141851482   -1.43363112687458
O          -3.14117465400061    0.89475413007477    1.12554808140182
H          -2.59654697336040    0.53230607977027    1.86430055792163
H          -2.85521787818397    1.80737051172211    1.01972053518794
H          -2.45657566233755    0.20734447040102   -0.08372619617816
