    19
        -40.91597553
S           0.29652819975992    0.40455938998904   -1.76656194687464
O          -0.81749308847144   -0.38257051244330   -2.26554058549380
O          -0.17548692894616    1.41185953794007   -0.79664600977598
O           1.39147765946235   -0.37232911804246   -1.25498099719096
O           0.84472943771054    1.23887075121458   -2.99154166232150
H           0.05359237809218    1.63655769257965   -3.34155938834301
O           2.37785327641339   -0.12482391210075    1.15137887930959
H           2.89710074958224   -0.92734680608271    1.23072600716312
H           2.03074665384314   -0.13141370638381    0.22758965670309
O          -1.81039755814040   -1.71620423320916   -0.29542164484255
H          -2.68986087019135   -1.99759714750892   -0.55654647858574
H          -1.39259094851923   -1.32470284695858   -1.10991947231740
O           0.33346557107549    0.14923572193005    2.74352153967925
H           1.13374342081638    0.00236141018887    2.16435358193827
H           0.49670243358239    0.97015073421854    3.21226720803800
O          -1.50247637993511    0.43040803468747    1.02270831450120
H          -1.70375850466128   -0.48792076665099    0.61269109220201
H          -0.80425634253746    0.28940782999880    1.77576909106270
H          -0.95961915894464    0.93149794663843    0.23771280514380
