    19
        -40.91226863
S          -0.28739738691184   -0.38837280603575   -1.68400834689701
O           0.92260264584051   -1.05206000707635   -1.33671428160435
O          -1.53170705897855   -1.06028386739479   -1.48972589012274
O          -0.33452447574606    0.98948286080849   -0.99800570273169
O          -0.21097174819686    0.00968835774603   -3.20800433442525
H          -1.11369316021794    0.06710181360452   -3.51281080421247
O          -1.31564963645639    1.48364581209448    1.65673590432913
H          -1.40336781457435    1.69915409722009    0.72328527057268
H          -0.39977220968366    1.66499338766313    1.88864369832634
O           1.52607221147444   -1.29103035648344    1.32467844777807
H           0.56471169067267   -1.41616753574785    1.49816887899265
H           1.64424108050129   -1.61798336820681    0.42292887278694
O          -1.12609515890386   -1.23660115038689    1.23852562804948
H          -1.44772898094792   -1.33385511603265    0.33293675810027
H          -1.38295603390134   -0.34487588002562    1.53527528188148
O           1.51566899920608    1.17930869215857    0.67323984107515
H           2.35096287571096    1.33584821979841    0.22774601250410
H           0.46273949810842    1.08956854844842   -0.32485600898659
H           1.56686467291197    0.22243829790283    1.03196078450510
