    19
        -40.91966070
S           1.27573986818773   -0.56094006663890   -0.99480575553401
O           0.79330067144440    0.55813539853714   -1.78930061997875
O           2.06428375716415   -0.08405250739162    0.15179661914795
O           0.22739872570241   -1.46160209607980   -0.58402304394945
O           2.27508493047632   -1.37425259244230   -1.89932834883728
H           2.92515144813927   -0.72179797462104   -2.14133900692974
O          -0.99244661847587   -1.30445973761600    1.84453200626200
H          -0.44497662951764   -1.82676237582854    1.23554328017276
H          -1.75181145779498   -1.03197344327282    1.27340248870251
O          -0.74442498328520    1.92649422655218   -0.26546798433333
H          -0.64766126521001    2.86051135372090   -0.46036411485756
H          -0.17946762746692    1.43928801140371   -0.93331574851344
O          -2.31731939689863   -0.44844566779233   -0.27263283357393
H          -1.56672315448502   -0.89363845599397   -0.69917919046393
H          -2.15533623720832    0.49588694472569   -0.37995762590666
O           0.38674645185669    0.77218913270008    1.74563912000310
H          -0.13174468281604    1.34162345631281    1.09162813081365
H          -0.21431103225266   -0.10207197560573    1.91963674245011
H           1.19851723454908    0.41586834049260    1.15753589560845
