    19
        -40.91793121
S          -0.68337511405815   -1.22379930357264   -1.06040373307891
O          -0.76944842896660   -1.42741214214838    0.39483239423489
O          -1.95539706518696   -0.83711466152792   -1.62607113923880
O           0.40239278401503   -0.32665887953549   -1.39828985609984
O          -0.30397216914474   -2.63393179735052   -1.66700509107848
H          -1.10029673459204   -3.15131737212093   -1.58267584379532
O           2.44434444983855   -0.20495573244735    0.22658234518963
H           3.15861851561985    0.13444088641294   -0.31597110769999
H           1.68690805699383   -0.35235662604182   -0.38847312110710
O           1.31043896874744    1.30031605034046    2.03903097395904
H           1.80082281623181    0.76119380524702    1.35957021997310
H           1.53631066201993    0.92297069478346    2.89161060686764
O          -1.09536763960695    0.78946069576775    1.40936852579230
H          -0.14279030414004    1.06611934407587    1.70523330412280
H          -0.99913532566314   -0.22213643709997    1.06685772366237
O          -1.47859192946222    1.64901686322396   -0.94905030854886
H          -1.90230714448210    0.83273602405939   -1.29874452833363
H          -1.31127488850403    1.29232681103570    0.53573566789185
H          -0.59787951965604    1.63110175690779   -1.34213705270251
