    19
        -40.91628484
S          -1.17679198439096    0.50009272745685   -0.14981005878348
O          -0.73013895170643    0.27431148595564    1.20761828127137
O          -0.02226511648067    1.11277421040046   -0.94867319058137
O          -1.70046528396528   -0.64166813968502   -0.82633859415251
O          -2.26036795820641    1.60342270898245   -0.14870858886539
H          -2.02094548020990    2.23800562115439    0.57349310476995
O          -1.36042471277863    2.70266725936870    2.03056196701302
H          -0.94839040147603    1.81787825306871    2.03890582152732
H          -1.96766870168514    2.73737513086831    2.77358364925001
O           0.00674719339651   -2.50711572208836   -1.71340754935048
H          -0.63721494494118   -1.80856231758003   -1.48739461557612
H          -0.40540675262035   -3.33495617001243   -1.45848491929047
O           2.40220303676701   -1.87284815028111   -0.70229529657108
H           1.52888059813282   -2.14709478605663   -1.06270001013354
H           2.98852013852369   -1.80351550351205   -1.45790430942261
O           1.91390951254699    0.43154608475186    0.47639251557657
H           0.86211386913861    0.92336097345142   -0.43445485743878
H           1.32766137555650    0.20741467294664    1.21013682368220
H           2.20004455441527   -0.43308834918761    0.07947981705861
