    19
        -40.91793118
S           1.01718697077807    1.01112172883456    1.01481082447404
O           1.33658729373519    0.90914650826332   -0.41833189072746
O           0.40934112114786    2.28038136589947    1.34213688451291
O           0.25175373709521   -0.13456619308766    1.46144425405304
O           2.40599835940843    0.94274412517999    1.76782127781390
H           2.81402546869009    1.78642294223780    1.59269233502203
O          -1.91679158171080    1.34225952700134    0.58433595153846
H          -1.81939117571729    0.54320435659281    1.11567686023886
H          -1.19883539533302    1.92783051529265    0.91598346023408
O          -0.92029992872236   -1.78365676396253   -1.87964902258826
H          -0.44374805531314   -2.07681638958486   -2.65894494559630
H          -0.37839044041236   -2.07880340468980   -1.09737312671139
O           0.56639074328131   -2.39088586263531    0.18377169711944
H           0.28348655470036   -3.05900730639694    0.81093585780272
H           0.54959924589848   -1.53617093631052    0.67679799129786
O          -0.80455991650851    0.73884093176249   -1.61714244364590
H          -1.40845274745165    1.00681100628498   -0.82579458975969
H           0.17571037199454    0.84939944554241   -1.19759503085260
H          -0.91961063557556   -0.27825561622236   -1.77157636422144
