    19
        -40.91898041
S          -1.09586621385526   -1.18577614616522    0.23637368919155
O          -0.21423006652878   -1.11204377459311   -0.91800195920327
O          -0.68861146799466   -2.14448051427797    1.22958046893127
O          -1.29975633441318    0.15863124397905    0.80322321076611
O          -2.51134404785613   -1.63749954164796   -0.31043933046947
H          -2.92839446254709   -2.09125337988420    0.41704286486741
O           1.34958378812340    2.23225432437263   -0.79180342989726
H           2.04292885403884    1.86041190938369   -1.34094633485309
H           0.48400226422761    2.00660671429809   -1.23843686287567
O          -0.89985534305290    1.30678316444230   -1.73594310201149
H          -1.56989123162442    1.47138888902475   -1.06544021577624
H          -0.67378641080336    0.35953372259245   -1.62860697464945
O           0.96847964077217    0.98323438468667    1.36856522642052
H          -0.04471595685747    0.71491525035834    1.23451677387227
H           1.19193585579106    1.57839787033938    0.53986855712342
O           1.81378601161416   -1.33265244359909    0.77499380361400
H           1.46169311685219    0.08451536142058    1.22878111899995
H           1.22186949648254   -1.89652297226661    1.30111749729292
H           1.39217246766316   -1.35644404247956   -0.10444499136512
