    19
        -40.91335390
S          -1.49502328016952    0.41185515154760    1.09751613331645
O          -0.55737881166099   -0.24088561370943    2.13018475015364
O          -0.98152574885173    1.69352572464177    0.71825846805828
O          -1.80797340465821   -0.49800642771110    0.04855185151287
O          -2.77732172672452    0.63754469610036    1.96735384174462
H          -2.59565712881986    1.39960913794702    2.51285261309059
O           0.64039502289182    0.22510897599349   -2.74064823895872
H           1.04064211729954    0.79185509638052   -2.04390102176612
H          -0.18337981521360    0.64881692688399   -2.98696328389288
O           0.22736336075417   -1.86828094439151   -1.14550021423147
H           0.44035591658660   -1.23655241049587   -1.87282665169908
H          -0.66129759252882   -1.61390763002819   -0.85051312027162
O           1.44405566252475    1.54533493898779   -0.54212183123502
H           1.81303802838006    0.83757796797133   -0.00156354288303
H           0.59997851337583    1.78573217636088   -0.12708708825857
O           1.49777620838217   -0.95463773775126    0.85836536348872
H           1.06362506872392   -1.37054077418957    0.02594276055402
H           0.30909844603813   -0.53292564908613    1.66227878978551
H           1.98322914363894   -1.66122359543175    1.28982043154131
