    19
        -40.92071429
S           0.43227857967633   -0.96243089575688   -1.04105397853982
O           1.84941327444153   -1.22591835921389   -1.14130246810645
O          -0.16455509480084   -1.41239352942694    0.19534116279558
O           0.12486591044807    0.46230011113077   -1.27560826765907
O          -0.26284108246910   -1.74961994080366   -2.22157878238481
H           0.40018647942882   -1.76567975544888   -2.90597875491681
O          -1.42079511998834    0.34543096796257    1.69025305840746
H          -1.11374828450837   -0.49905425509283    1.28657530663456
H          -2.05102451122638    0.70088783790120    1.02852337847330
O           2.28217383680572   -0.47666770664328    1.32919932119929
H           1.80836186050089   -1.16746304928089    1.80176086834755
H           2.31793603428591   -0.78592821438532    0.39312137273085
O          -2.39225080777353    1.15236729483939   -0.65558427651325
H          -1.53772014983779    0.85951304894771   -1.03015156892895
H          -2.60752330105416    1.98378069751771   -1.08089289157237
O           0.67159889478947    1.45512887844205    0.97206784455345
H           1.40775975144301    0.78706359020106    1.24233336464948
H           0.50958365384872    1.22368050162887   -0.01440458514246
H          -0.25369992404039    1.07500276763255    1.42737988592687
