    19
        -40.91295831
S           0.49494067181952   -0.93813031270184    1.11122227029049
O           0.70192772900160   -0.98446805504672   -0.31638764839814
O          -0.33716933961453    0.28910846065935    1.46413593707762
O          -0.03219170236292   -2.12472379631101    1.69416058788121
O           1.86738365250256   -0.60171320958299    1.78490768140730
H           2.24281164488860    0.14832198479006    1.29603357883890
O          -2.08204467259870   -2.07387125176320   -0.15749546969425
H          -1.32533943007153   -2.28536528753570    0.40964324328851
H          -2.86632892058633   -2.34820889561287    0.32434514839714
O           2.28544653380925    1.03116024856190   -0.43686104746264
H           3.04826164960152    0.93323960500283   -1.01146466120531
H           1.72088709614828    0.23431016698294   -0.58161403497441
O          -0.02568478694964    2.11269462727308   -1.63280986835167
H           0.81570109561873    1.86036005065371   -1.21742330508684
H          -0.24633171380395    2.98484159409001   -1.29967393759766
O          -1.89955598971191    0.60444221263754   -0.42091721166948
H          -2.00353568305908   -0.34577918521227   -0.63533317372633
H          -1.06889905454741    0.48852056879508    0.69972575081793
H          -1.29027877932118    1.01526048391536   -1.07419383910922
