    19
        -40.90993989
S           0.22305848216511    0.69260227706279    0.51301542330640
O          -0.24031701749091   -0.68535434893833   -0.06444409474788
O          -0.93516377503773    1.50644271775037    0.73863581164284
O           1.08803641539629    0.47597115786949    1.62315979976735
O           1.03754049275493    1.24735615922211   -0.67634532243829
H           0.47704398367781    1.07339094326593   -1.50297351455819
O          -2.32388786594324    0.21383764818549    2.62729525824504
H          -3.25349984161831    0.24308782531093    2.39295499736417
H          -1.86668371512460    0.82721084350100    2.01911705533564
O          -0.20969843699239    0.33520460514777   -2.70704368552996
H           0.62478771262691   -0.05853475133218   -3.02640396724732
H          -0.66792285791202   -0.35976568150899   -2.22241617692115
O           2.43004780612207   -0.31995851662090   -2.72271447378968
H           2.43888196869032    0.07098571657185   -1.84126164995764
H           3.10250622546206    0.13276749334136   -3.23579632269801
O          -0.52145344897802   -1.71012164173499    2.22709049240189
H           0.26668646140801   -1.26303204956920    2.56103305382612
H          -1.27790871855451   -1.16153488326732    2.53281852630552
H          -0.39205388053013   -1.26055550416701    0.76427876966501
