    19
        -40.92139826
S           0.59237489812825   -0.95661638695090   -0.44985272154400
O          -0.32352892789867   -0.30251435830736   -1.37929366700846
O           1.47963259731167    0.02896411690258    0.16556330603158
O          -0.12317936868425   -1.73213419178211    0.56021491277295
O           1.46691637707487   -1.96702355250622   -1.24611729407614
H           1.91552958004161   -1.39421960511510   -1.90135257019328
O          -2.51227927321260    0.63623183296988   -0.34381223700163
H          -1.75784974353298    0.23814951791235   -0.85340778603150
H          -2.45643071523964    1.58507458850098   -0.47720577139681
O           0.30199866361307    1.30056695758857    2.08021015538789
H           0.81418717196819    0.88858445300386    1.32932473400438
H           0.86975661049607    1.23646709504578    2.85113053988328
O           2.10288639024827    0.26502829022851   -2.49321808225333
H           1.14437399316604    0.36143046736196   -2.57449865824230
H           2.31127520637808    0.59554051818297   -1.60969375315859
O          -1.65410174931266   -0.28508888468743    1.84412110856617
H          -1.06093120105587   -1.03070032361257    1.37088467999799
H          -0.94055491373086    0.41996963431846    2.08728511419968
H          -2.17007559568782    0.11228982098309    1.03971800007507
