    19
        -40.90805026
S           0.20347462703560    0.68957934679113   -1.44062615009296
O          -1.02589740553259   -0.10663787117667   -1.00863042187788
O           0.22580804840912    1.95056965233478   -0.76184112648292
O           1.37013216318567   -0.12495230352138   -1.35919859061844
O          -0.08263063522673    0.98358173131963   -2.95929497782032
H          -0.66621738430455    1.73879043837542   -2.98434454894372
O           1.64314890836894   -1.26473845921235    1.12862081187542
H           1.99439077634897   -0.87303688187557    0.31631012227642
H           1.24126025898914   -0.52423202684870    1.61276879447053
O          -2.35241999897039    0.45122917861132    1.58283066088259
H          -1.44120986243010    0.60332833472278    1.86300310482285
H          -2.29957164823669    0.21398400101301    0.65385480658704
O           0.43314151540147    1.11857975960588    1.76978427676298
H           0.36722954017042    1.53441761876777    0.88890611441594
H           0.62452584475785    1.82159161675017    2.39434664889116
O          -0.22388752025187   -2.34687674283378   -0.31120781764169
H          -0.74720504118082   -1.09428371116030   -0.72117936429764
H           0.28579314320138   -2.70258337656578   -1.04443082047764
H           0.45013466048914   -2.06831030511038    0.38032847717688
