    19
        -40.91864567
S           1.11001968618734    0.10892776415208   -0.38493903823986
O           0.79246705976539    0.65036584506563    0.91557665365337
O           2.18361599458108   -0.82023430913196   -0.44829524473632
O          -0.18484592761093   -0.58972647801440   -0.92665615409171
O           1.29594491522766    1.25922168309504   -1.37331652303248
H           0.71352845264918    2.03433972165423   -1.03291392157865
O          -0.26019809692525    2.89432969829362   -0.24200648656172
H          -0.02140263454752    2.51319217344099    0.61382504347879
H          -1.12507362979888    2.49368257532946   -0.47768441073955
O           0.21539706087487   -1.57789932101310    2.30797479008841
H           0.50812000491166   -0.72259907473930    1.94114393089641
H          -0.55836483686370   -1.39590294504972    2.84504613708404
O          -2.24415936111626    1.24435136717161   -0.97536500528298
H          -2.62807842128467    1.27532120410820   -1.85385921335449
H          -1.63708171714007    0.48695772001417   -0.96136493230668
O           0.36174954039139   -2.86753081990341   -0.01851524990364
H          -0.09076126321945   -1.57956476933789   -0.65206643663315
H           1.30497086867893   -2.77914031437357   -0.20690019213393
H           0.26415231516581   -2.62809171080301    0.93031625337339
