    19
        -40.91790598
S           0.72832082026413   -0.22663707671918   -0.68677994108124
O           0.49283586768279   -1.63984190119537   -0.76160134802175
O          -0.45790072141233    0.58666983121713   -0.76764286044970
O           1.52353594152020    0.11026289641002    0.56091873726894
O           1.70603349407250    0.19948726681565   -1.82609396788831
H           1.23454743449187   -0.03265202721549   -2.65330193924081
O          -1.73984785740309    0.73324911137768    1.64530157340497
H          -1.65897569874158    0.72958956005600    0.67958944782934
H          -1.49263516494040   -0.17187325063126    1.91076643393605
O          -0.49453888204909   -1.69039047397811    1.78342917515954
H          -0.21838446989258   -1.87540060895055    0.87243669869734
H           0.30299303712569   -1.72249635112498    2.31592721643412
O          -0.29582120558875   -0.70279611319376   -3.26659385244723
H          -0.91635332361269   -0.13597592003446   -2.79518780559468
H          -0.28645995196658   -1.54125438532978   -2.79076256863231
O           0.48371867295929    2.04819649223454    1.73740584851819
H           0.35261742215374    2.74935148139135    1.09393274365220
H          -0.42018749570829    1.62346274507826    1.87262084226622
H           1.15650209112616    0.95904873380758    1.07563557623711
