    19
        -40.92071365
S           1.08112837777684    1.00824778422480   -0.09719021040837
O           0.76695256563502    2.24459103793041   -0.77577922655081
O           0.21804113069417    0.79863922327606    1.08186170866267
O           1.06003276399890   -0.15557560469655   -0.95314335932564
O           2.54853140555790    1.15930614959471    0.46896258202320
H           2.63733007128553    2.09526585113268    0.62496684275665
O           0.39517997532326   -1.66275190722448    2.13426022622260
H           0.05709516944066   -1.65116831133360    3.03085510269636
H           0.46100345841648   -0.73015015799141    1.84790376038159
O          -1.20273702405644    1.14673925787335   -2.10615238939988
H          -0.51751039461783    1.72801890797562   -1.69927098574127
H          -0.71169338681032    0.53377516402014   -2.66123113875983
O          -0.52927786716696   -2.14862381578601   -0.31715545484597
H          -0.22507369932004   -2.31317771228002    0.60019325576223
H           0.19831644374542   -1.61241862233436   -0.70905746287485
O          -1.87384549220006   -0.09598188663867    0.00583376156151
H          -1.14432014100886    0.34708020956085    0.57591993409346
H          -1.78657971390130    0.39718942738118   -0.89410986333141
H          -1.43257365283221   -1.08900497475183   -0.15766708280116
