    19
        -40.91593758
S           0.86342987077793    0.09310266360974    0.72907681875730
O           2.14780475081973    0.53994846106977    1.49634529964631
O           1.23684996315647   -0.73977880000414   -0.38186071301525
O          -0.05259702955347   -0.50656127072279    1.65879245871932
O           0.30971769507774    1.41990754705079    0.22834766193888
H           0.32320873124373    1.40530218163620   -0.83730254894995
O           0.29862151473142    1.03133880762417   -2.21876132418617
H           0.82028063112982    0.22363169535082   -2.10186308606113
H          -0.63999121726876    0.72381307458261   -2.31241666423625
O          -2.17068280359161    0.13399898701777   -2.04154314568154
H          -2.30342988466946    0.13572077400690   -1.06746394502153
H          -2.95267226800861    0.53615466513648   -2.42348960154125
O          -2.38593865361850    0.40104219922272    0.62720272532969
H          -1.66964639391839   -0.07460076045705    1.08248077003539
H          -2.23530763282895    1.32922564383518    0.82279335375353
O           2.29375253405359   -2.06850075696158    1.82068390399602
H           1.42005475376412   -2.12986790293900    2.22152967358258
H           2.15480927783478   -2.16012394758344    0.87015037150624
H           2.54173617088526   -0.29375328146274    1.82729799142334
