    19
        -40.92115648
S          -0.51873088910243    0.20482599791076   -0.90106889957279
O           0.26586795568858    1.41998658163210   -1.06888583650092
O           0.26780858108668   -0.99578892912152   -1.07323100239495
O          -1.17718089437622    0.21840007956757    0.42874989501391
O          -1.66032970587821    0.19438035508876   -1.95443179425940
H          -2.12468937425571    1.04552910953197   -1.79164586032054
O           2.21603290888523    0.56737882622835    0.46041390184463
H           1.57527210921836    1.05122255771716   -0.11349449059025
H           2.64278328701213   -0.06236667607177   -0.12635616179199
O          -2.19362021812020    2.52285600678958   -0.86794101801820
H          -2.35840751283803    2.16048499895075    0.00875003030210
H          -1.22851949726999    2.58468248962826   -0.94585271221198
O           0.54849813267928   -2.82010526622943    0.77327563685375
H           1.31648352582830   -3.35554342192817    0.56519635470236
H           0.34762176284504   -2.28473013036302   -0.03169197701517
O           0.52577756941780   -0.58047678159197    1.99567010183127
H          -0.32177913526684   -0.20537705648355    1.40536726353284
H           0.56857588864002   -1.55614272372417    1.70575978318326
H           1.30853548584281   -0.10921600750274    1.53141679540461
