    19
        -40.90887513
S          -0.56075437998915    0.52413082346633   -0.15547819146774
O          -1.20477527570889    1.70926896587220   -0.61188685291258
O           0.83452930274263    0.64024473890276    0.18034200006777
O          -1.32895544109099   -0.15743657617942    0.96053497244974
O          -0.65565463867237   -0.57149745446023   -1.30520524057110
H          -0.20274898695612   -0.14568634763822   -2.07130809053920
O           0.69443773356063    1.22819985273924   -2.61554403184671
H           0.05490634949168    1.92016189677656   -2.41015950452441
H           1.38016309825069    1.28629642782808   -1.94120096378648
O          -0.14091850303550    2.68983960783129    1.85988755573441
H           0.54514556082130    2.14892838705315    1.45974377654761
H          -0.80903499992794    2.81471070199132    1.18104602201043
O           0.24631549236022   -2.97369393778469   -0.19645619474984
H          -0.43069993338096   -3.65334193092096   -0.21843952754566
H          -0.08220244564465   -2.23017751832206   -0.72420287181575
O           0.53230037502896   -1.47809583860404    2.00092097478756
H          -0.65918051252211   -0.72606160089919    1.52138429546562
H           0.57409781577046   -2.18914520247062    1.32308700320559
H           1.21302938876229   -0.83664498507281    1.76293484950250
