    19
        -40.91912333
S           0.25996432851177   -0.06712420382125    1.30830302470946
O           0.66602929013781   -0.58696514555492    2.57483046967003
O          -0.96691113382371    0.66877357944067    1.25383091144078
O           1.40285276624515    0.74900000096253    0.71663419182730
O           0.09427597216271   -1.26898069982011    0.30521716792441
H           0.81938791331749   -1.90212612129719    0.55228917790301
O          -2.07617347562499    1.76403695086893   -0.89050944127360
H          -1.75541602089672    1.36756379832431   -0.05435552307850
H          -2.87995056380702    2.23776957813325   -0.67235711032377
O          -0.78991663884145   -0.35898442816503   -2.24280733343623
H          -0.61945878447406   -0.91633222752421   -1.47384083516184
H          -1.55027400980253    0.19441446768720   -2.01440235969044
O           1.95704261721918   -2.60489825846192    1.48930708555945
H           1.74177705928681   -3.44941274341904    1.89317382552481
H           1.76382902381852   -1.91538042654090    2.15348216423138
O           0.64202923608920    1.73301749689633   -1.46519524401375
H           1.13541155976572    1.19691523577701   -0.18649510373154
H           0.33205430501704    0.94038883132603   -1.96567648265713
H          -0.17655343430215    2.21832432521914   -1.28142858543869
