    19
        -40.91593747
S           0.34664001411683    0.78027789776681    0.74572445021168
O           0.37441846468709   -0.52630374049672    1.34512262198045
O           0.42887097417975    1.86556988943457    1.86519400237211
O           1.37770690256953    1.02794446319344   -0.22309748241432
O          -1.02219785298508    1.05002193777591    0.13608171913650
H          -1.63157254517988    0.18975054093298    0.29247317286279
O          -1.29121244436501   -1.91939480547533   -1.88085671054834
H          -1.83712967269244   -2.12680944715555   -2.64116347366970
H          -0.72659800856552   -1.15830310625879   -2.14233834116459
O          -2.13213112149673   -1.13704909528285    0.48905490362047
H          -1.40871051740892   -1.41982855632671    1.06780779516297
H          -1.93388467507543   -1.54441494384025   -0.39351154188891
O           0.04316716282944    0.33985811122052   -2.47634065281564
H           0.69355869565422    0.54970755781341   -1.78376749690979
H          -0.59798702711997    1.05416463951751   -2.44363644691688
O           2.73786721420701    0.65219563577393    2.22021947337505
H           3.01912713560361    0.79055076290005    1.30944621549892
H           1.29967022087996    1.71840477376007    2.28940509835714
H           2.26039707017858   -0.18634252525540    2.22418271374950
