    19
        -40.92453777
S          -1.26162821466112    0.41957170132137   -0.74562038832732
O          -0.83583692980418    1.56379050485840    0.05190384172041
O          -0.29709027940116    0.06486299642606   -1.76545490569700
O          -1.61042819888904   -0.70832897063785    0.11160493115950
O          -2.57948469999891    0.84491614267304   -1.50529929561664
H          -3.20454538007210    1.05292130919606   -0.81692082065972
O           1.70218702650984    1.44262598479408   -0.49907447109849
H           1.63341093060706    1.14287894065024   -1.41294342480730
H           0.77090339116319    1.67946236261309   -0.26139634226018
O           1.85851091052239   -0.62003136089091    0.94083837396867
H           1.94442143865192    0.24931007191289    0.36361180041401
H           1.07431653184268   -0.41191087379484    1.60039046676408
O          -0.24011103115766   -0.03652231817689    2.20651741235168
H          -0.86885785547459   -0.39392084412000    1.52888215888635
H          -0.33675728386253    0.91942266990687    2.12276171973282
O           0.63280598050980   -2.10592684958572   -0.68523582812951
H           0.32922517735833   -1.37929254730948   -1.28312585884359
H           1.46528962464319   -1.33843279959198    0.28961076458608
H          -0.17633113260311   -2.38539611762973   -0.24105013450129
