    19
        -40.91869363
S           0.76566979257881   -0.47688329050594    0.16058994726465
O          -0.53263389920787   -0.63128029987450   -0.46894616630575
O           0.80509040216295    0.88781194600600    0.87829620110763
O           1.11336540938796   -1.52622653503349    1.05959193391127
O           1.83569114920831   -0.33635254139178   -0.92177661402273
H           1.64624080514381    0.46112486708158   -1.52416444574382
O           1.26200304628835    1.57169263267205   -2.52039522362800
H           1.46030442273470    1.30415693327463   -3.42108486897056
H           0.28087528479656    1.62200236141626   -2.44376603180456
O          -1.63293895445296   -1.65007078064780    1.78380455268214
H          -1.08326458227458   -2.43554189349624    1.85597438418602
H          -1.45885204155383   -1.30363197689971    0.89258594122633
O          -1.34617510424585    1.23350180031543   -2.17735924201878
H          -1.15914973119358    0.56678623642882   -1.48488613754934
H          -2.01934133034152    0.85275633889369   -2.74423817797768
O          -0.12436993309724    0.10036021026093    3.11258867091945
H          -0.83478388248193   -0.48891022152252    2.76085065142631
H           0.58421215227972   -0.48683464062332    3.39128363472721
H           0.43805702430771    0.73553884365766    1.81105099052140
