    19
        -40.92079087
S          -0.80494414070132   -1.24671838496215    0.07113189946526
O          -0.09087058569293   -0.92259756535539    1.30756356577318
O          -2.20162440385556   -0.90046382068214    0.13261864923398
O          -0.10711258996190   -0.71460127964775   -1.09115375842667
O          -0.71915003414289   -2.81968358467194   -0.08204735965064
H          -1.29687019784351   -3.13944019767334    0.60385594463384
O           2.51192026112594   -0.75083926445275   -0.95045971225533
H           1.55175316302232   -0.91786544118659   -1.10245253557142
H           2.86132587360654   -0.39728824335911   -1.77098826149895
O          -2.11632162694456    1.67875600627379    0.70285418708067
H          -2.20943475091693    0.70959571291519    0.57648924903835
H          -2.95817764030706    2.06306116534935    0.45066888482530
O           0.16317692733242    1.89209745886151   -0.60253766090542
H           0.00085898540444    1.04115179732892   -1.05790811743623
H          -0.66691992232480    2.04876146446508   -0.09362309667428
O           1.71310854867523    0.73866269302502    0.97181026061371
H           1.12959973078987    1.39456907622098    0.36583931413667
H           0.98216044710341    0.03851615732762    1.26589479827636
H           2.25752195569854    0.20432624043406    0.30244372923081
