    19
        -40.92217212
S           0.23896286291582    1.02798531603076   -0.89104192463995
O           1.16446377085162    0.74892234062280    0.21480790087852
O           0.86397800459554    0.95594085600636   -2.18045382267476
O          -0.99120092231407    0.27123404694903   -0.74143314383801
O          -0.20477143211658    2.54990928076981   -0.67652446748112
H           0.37315432815888    3.05261411234069   -1.24303749097498
O          -0.54304985080340   -2.25276893065311    0.05053492729445
H           0.27228278937274   -2.27389456520142   -0.49769663998415
H          -1.07981859892443   -1.56567507386135   -0.38216642209636
O           1.56710809344363   -1.52762444265789   -1.41977592166826
H           2.35637948694761   -1.31208355777374   -0.91725493088011
H           1.32057233946953   -0.70592955793991   -1.88001053461065
O          -1.84344218910616    0.90948517235260    1.64596315790307
H          -1.67583030892681    1.84425320219222    1.78043026761357
H          -1.72346775633945    0.74707766007186    0.68201806076995
O           0.11649533302810   -0.71833168701355    1.90762813756916
H          -0.71789221497252   -0.15790814928429    2.04674612313747
H          -0.17181339815204   -1.49845032157042    1.23558157266635
H           0.67788965408950   -0.09475570128422    1.26568517093137
