    19
        -40.92135364
S           1.28891210674366    0.79232849884917   -0.38533335567876
O           0.99651893784256    1.47218973798971    0.87720145779095
O           1.94491569690756   -0.47978796637182   -0.17707512912567
O           0.10586843009531    0.69632917507504   -1.22583740920285
O           2.30030384448364    1.72012613367028   -1.16406662716184
H           3.08246158584322    1.68320903741351   -0.62227693789935
O           0.09679036175166   -1.90260374703346    1.01508674018748
H          -0.39555031673097   -2.08953485170179    0.18012763623756
H           0.94376868285440   -1.51462032169657    0.69059827681166
O          -0.72607308503521   -1.84815402821057   -1.49556069178410
H          -0.13990863952877   -2.32053144677597   -2.08921820144637
H          -0.46112084972580   -0.90867043849927   -1.54034762717218
O          -2.21153919666048    1.07979992496654   -0.00878921173256
H          -2.42751397863871    2.01415597325069   -0.00598850866663
H          -1.43010160954568    0.97426685497341   -0.59775807575528
O          -0.84451906362461    0.18510582307458    1.95222834949069
H          -0.04380679470502    0.78041266781499    1.66383156368916
H          -1.56799751471499    0.47351853687208    1.29709362137923
H          -0.51140859760943   -0.80753955366461    1.63608413003875
