    19
        -40.91469028
S           0.01541322029944   -0.85228396483885    1.08222277541219
O           0.18603734035104    0.55965370374313    1.33278552980601
O          -0.47768780837503   -1.02320401778643   -0.38001184333530
O           1.15248181220624   -1.67709892877968    1.29431908504445
O          -1.18761594985079   -1.35506801674367    1.90806769081807
H          -1.86248632697145   -0.62629849908366    1.88150252527572
O           1.86113926152817    1.13934109857299   -0.78637551891503
H           1.13628240759679    1.46533989195353   -1.34922010559709
H           1.48308429214707    1.11113365285046    0.10481654633872
O          -0.57429001374570    1.26326624727836   -2.06197922707144
H          -0.84043595340129    0.53786732097363   -1.48132588724895
H          -0.64815318011796    0.93798596456809   -2.96131883721298
O          -2.40975293614833    0.92395551365938    1.70465664522147
H          -2.65012010288197    1.39836428861358    2.50447726378191
H          -1.49318681675310    1.17714511034329    1.48898884052787
O           1.76495354140033   -1.40193870277338   -1.40660305943742
H           2.14985687678646   -1.86437311316334   -0.65251334137660
H           0.37971552165424   -1.27062170934801   -0.92712691347525
H           2.01476480465861   -0.44316582003243   -1.29536216846076
