    19
        -40.91930886
S          -0.60906354090399    0.20237414093334   -0.60130688829926
O          -0.70386246822145   -0.47001557734495    0.77439747656277
O          -0.31683839742248    1.59951564349874   -0.39130876598485
O           0.28218824135184   -0.52601481448463   -1.44195149982852
O          -2.04246578677830    0.08622738269248   -1.18144101179948
H          -2.57620478571089    0.81564868334132   -0.77327121154839
O          -2.85429136978529    2.29111165753080   -0.06819882598116
H          -1.88530175086284    2.36522985659885    0.00775617154705
H          -3.14299490635300    2.99142126666838   -0.65877913813533
O           1.84608187545609    0.90062612199344    1.13485903456654
H           1.19368581168519    1.33740102330022    0.56776137884305
H           1.38551693748676    0.66889781124916    1.94464199052554
O           2.63031541090319   -1.32410307082634   -0.24274967243903
H           2.63297644070681   -0.52955558001838    0.32228957881046
H           2.12526055775885   -1.06057011400074   -1.02442235234513
O           0.55922097010013   -2.62798548609370    0.63125574971486
H           0.24727290626531   -3.07562156874678   -0.15924849581042
H           1.45581121561508   -2.24462294608836    0.38777752143135
H          -0.22730737127972   -1.39996443014387    0.77193896023861
