    19
        -40.91593757
S          -0.55209592460817    0.14904954836282   -0.97931086521473
O          -0.93244534428850    0.35641555645206   -2.47929523943658
O          -0.23104396031786    1.41992864148342   -0.38844835436802
O          -1.60438929746194   -0.57776464487017   -0.32551304187294
O           0.69781195557518   -0.71440198603540   -1.08035447903905
H           1.51574315721833   -0.16465417226320   -0.67458059884123
O          -0.11436096498254   -2.10500873585111    1.34163659280757
H           0.30995624497539   -2.62722440011489    0.65624954487837
H          -0.80346179081519   -1.59419624697000    0.88240934215625
O           1.78069057777137   -0.47990095991006    2.34557695088366
H           2.36997363620368   -1.03071429091951    2.86380176611894
H           1.03130167594079   -1.05412452985944    2.07144287794944
O           2.35559995294895    0.72089062921757    0.07360787942274
H           1.73191245679857    1.46186572714617    0.06831140685254
H           2.28285654868311    0.32579429239514    0.98084474668435
O          -2.82874529444537    1.76533689102215   -1.31852892375500
H          -2.14083551705368    2.20038648283510   -0.80000854782810
H          -1.73268185998231    0.92132119499281   -2.45628595650771
H          -3.13578625216150    1.02700100287937   -0.78155508087925
