    19
        -40.92179453
S           0.71988342153843   -0.63473989907220    0.08032423167109
O           0.76561580212310    0.69610684213414   -0.72046058071737
O          -0.57287095499876   -0.72239266820796    0.72966606347995
O           1.03242793598608   -1.73181503482591   -0.77150798364060
O           1.80711675638030   -0.42249328194608    1.12814123943682
H           1.70235713574348    0.53280856840373    1.49445489353544
O          -1.77966443569629   -1.71831504093223   -1.47810979622124
H          -1.38174689648731   -2.59223867022779   -1.51043218336710
H          -1.55250151514857   -1.36575850362050   -0.60099680555300
O          -1.19332520485700    1.38318969860922    2.23418363023631
H          -1.51790632002012    1.06756452071174    3.07971037097959
H          -1.10852745295629    0.59525134790245    1.65898325631076
O           1.34398858088280    1.96579224847753    1.81757164615415
H           1.34566104367643    2.39496191443251    0.95681017216868
H           0.39312734810554    1.89589755144657    2.08387157643820
O          -0.11162036558834   -0.22112532000977   -2.91255558907501
H          -0.87869445083287   -0.71761529007895   -2.53644644748337
H           0.42128181334817    0.47954338346275   -1.65546873091205
H           0.56539774890656   -0.88462238668790   -3.07773898361278
