    19
        -40.91759249
S           0.01501200107595   -0.55939533464215    0.97109674027594
O          -0.45957600558716   -1.14294495707691   -0.25960402375984
O           0.53150257205153    0.87664934882425    0.61732788196495
O          -0.93784521922759   -0.47460489368338    2.02926365422999
O           1.28196816825157   -1.26338989223864    1.43974637232079
H           1.74621459704231   -1.63059213608907    0.59853553300122
O           2.44231800159229    0.63979566877636   -1.38960716233243
H           1.96012537385131    0.90771568614346   -0.59330811113797
H           2.12758965446383    1.19558378082755   -2.10528084664950
O           2.06286411816990   -1.97814000440823   -0.84918674551947
H           1.13033038991603   -2.00703093895212   -1.10815161892641
H           2.41509717315176   -1.13382410933411   -1.19574386649394
O          -3.00665060990876    1.03462517695434    1.19673385093405
H          -3.82922936677674    0.55644062321882    1.31699576256727
H          -2.31971836265369    0.52205655360324    1.66303572067400
O          -1.41687229468428    1.34828522487239   -0.91751828152041
H          -1.40457199371274    0.41292426000530   -1.16488055826660
H          -2.14109129256568    1.43525916430387   -0.25974442278859
H          -0.19746692438653    1.26058677887671    0.01029011137458
