    19
        -40.91188293
S           0.16922592468178   -0.63260463029655   -1.61738169193056
O          -1.11074980052445   -0.82959687270689   -2.21532830228678
O           0.35390155487626    0.84670286624539   -1.26830825165627
O           0.51707716769963   -1.45466694449494   -0.49965719691173
O           1.28122243679072   -0.85342502028632   -2.70691773315419
H           0.93144183835973   -0.57628580203137   -3.55176055023521
O           0.36858220738907    0.46644128948452    2.89863004085015
H           0.64507964538503   -0.06196465758137    3.64880735041956
H           1.10910739671041    0.44242024660540    2.25485170659192
O          -1.47640147803334   -0.53443052279037    1.23051009339605
H          -0.92462349406494   -0.13118468242074    1.93931716820917
H          -0.88066258429996   -1.11275423743770    0.73555251657001
O           2.16274719953399    0.20539693342480    0.89740545785154
H           2.04886697798815    0.95611493985806    0.30840528864158
H           1.72688843756775   -0.54063680739397    0.45356314359358
O          -1.96676182406532    1.25372183241579   -0.55575427257883
H          -0.62455779879802    1.17471273658231   -0.95545761702910
H          -2.40782618939810    0.73943626451854   -1.24252203810328
H          -1.92255763777305    0.64260304835279    0.24604488777003
