    19
        -40.91855580
S          -1.12762000561251   -0.26816943465062   -0.12299221041235
O          -0.45453596333122    0.78385906584689    0.61346687472858
O          -0.79521525699680   -0.12451740676988   -1.60944977010993
O          -0.87445499682736   -1.58776742355612    0.35232794417994
O          -2.64497797039900    0.00569904469451   -0.09311443210957
H          -2.74018175138666    0.98640022887894   -0.20124708590305
O           2.19588257161987    0.10857683590408    0.56260121460773
H           2.17203167941990   -0.77458972441053    0.98059769981397
H           1.32885836956064    0.50147820945765    0.75339222451497
O           1.46526828654082   -2.30561768293940    1.53869975779710
H           1.25548936347162   -2.55709757339422    2.43974454395069
H           0.61423018147620   -2.20490392406601    1.07732384142948
O          -2.27598538437074    2.57705978940120   -0.05254698866737
H          -1.41316098131033    2.22788268011282    0.23948985586437
H          -2.64990600869518    3.05887220587111    0.68943615143894
O           1.68739524401611   -0.34463243221051   -1.93165056421942
H           2.01642121901055   -0.20803107407194   -0.99049734923383
H           0.21416486694698   -0.26337897935548   -1.79546622840682
H           2.02629654685257    0.38887759528859   -2.45011548923102
