    19
        -40.92218937
S           0.67331874680444   -0.28062335642237    0.89883608624593
O          -0.16205841678269    0.88553183584910    1.16810510733789
O          -0.12146295955458   -1.50815972567444    0.86136913398015
O           1.43761604837186   -0.10365093243242   -0.33161221765468
O           1.67725496807680   -0.44336040149280    2.07727843051267
H           2.17047971340914    0.40274807443553    2.04827659516610
O           0.14075037598303   -0.75132692287030   -2.48125949026195
H           0.69848487190629   -0.42975343610401   -1.72239758197727
H           0.64287685205848   -1.45344469646150   -2.90072842400052
O          -2.45529930597419    0.84688196882750   -0.04123837887222
H          -1.58369215211912    0.97705025529203    0.42080239517997
H          -3.12542250063380    0.86737801010683    0.64539688739324
O           2.35290291156612    1.95335122325190    1.22690928058598
H           2.44100090752736    1.53778649828599    0.35907738449196
H           1.41069261952177    2.15190419357129    1.31071345075385
O          -1.77397671646775   -1.39928475539703   -0.96938364203293
H          -2.20133752051684   -0.49791270360971   -0.69281399464215
H          -1.10335805539675   -1.17332138820919   -1.72482240951622
H          -1.11877039778092   -1.58179376094944   -0.15250863268511
