    19
        -40.91051027
S           0.24443714434034    0.27646537828680   -1.77762879560777
O          -0.98016519105366   -0.37120245065356   -1.38983479257003
O           0.22070096559336    1.67760636421574   -1.98731796849953
O           1.34949450310581   -0.09551967779369   -0.77543197305594
O           0.74188021656448   -0.43295893358408   -3.08908491991479
H           0.47721854520071   -1.35133972422872   -3.06309484646674
O          -1.18469706503123    1.20685255786361    0.92676590341230
H          -1.26900650948407    0.51996870586456    1.62355950453913
H          -1.41866744261143    0.77039692902041    0.09844147235713
O          -1.12319765000831   -0.93210111534845    2.56472692229456
H          -0.51560222455788   -1.02282938292274    3.29999578008342
H          -0.82818074813632   -1.55784434125527    1.87190338744450
O          -0.10743866990825   -2.22371318220567    0.40084170348613
H          -0.62406392859601   -1.70836560876846   -0.24075716006434
H           0.79056573242410   -1.88510393000456    0.32981988941810
O           1.26341966071266    1.96097980255130    0.58866131241906
H           1.19968007362508    2.61829146668327   -0.11369791890396
H           0.31506778003257    1.79211903700836    0.87364739208509
H           1.44855480772558    0.75829809538344   -0.14151487246094
