    19
        -40.92179378
S           0.95831242537117   -0.10048145330537    0.00162016939432
O           0.01009916829633   -0.44462753379157   -1.18041728558398
O           0.15477840582803    0.45215906039715    1.07391290323780
O           1.72734986908122   -1.24252203678698    0.36378762751313
O           1.83941087650615    0.99138474177107   -0.59512962487743
H           1.22797895976520    1.63357871746124   -1.11603378470304
O           0.11732165370465    2.37669064266308   -1.82386034458734
H          -0.30612375817406    1.69337234891748   -2.35191596603337
H          -0.51156098690409    2.57824461385040   -1.08647367202521
O          -0.50873849269662   -1.99057427312079    2.03021497052463
H          -0.41077081180448   -1.03977051855037    1.85268475480605
H           0.35061214964892   -2.27668334606718    2.35109883228428
O          -1.36641720647530    2.51218121576995    0.35139575493888
H          -0.91060770026591    1.72513619157886    0.71436110878029
H          -1.26496571883853    3.20839688747818    1.00320014584837
O          -0.50696338487534   -2.82809304624356   -0.49445337578110
H          -0.68402769168727   -2.64684050530110    0.46099844086372
H          -0.29692615065895   -1.40504593416604   -1.03017120469257
H           0.38123839429306   -3.19650578241115   -0.52481945988299
