    19
        -40.91521777
S          -1.14417878246123    0.68333284818843    0.88605313662447
O          -1.48024894713261    0.69427821389482   -0.51774293698681
O          -1.04270843956581   -0.73490040846461    1.38410216614175
O           0.00191301427215    1.44822556260112    1.25873601410523
O          -2.38516181720402    1.25977994176973    1.65990845158043
H          -3.15742636725963    0.79387415855153    1.34602722826527
O          -0.60032062794579   -1.56085784253556   -1.77801667215280
H          -0.70403537612113   -1.41050087321343   -2.71997605671694
H          -1.03441551815154   -0.81523867658772   -1.33027646697392
O           1.01107783698114    1.54143914491767   -1.32723475064433
H           1.18848250890048    2.06192058800616   -0.53840185535034
H           0.06497895420691    1.33891691444191   -1.27868500018070
O           1.85644762192169   -0.97763382163818   -0.78492076525473
H           1.07839827967350   -1.43198419018994   -1.16295203994636
H           1.75871381757846   -0.04623909971107   -1.07290546540947
O           1.36612007911615   -0.90955017413551    1.71473290983488
H           1.66926201925392   -1.02689192378481    0.74075809312221
H           1.50740167995413    0.02265557540246    1.92565420063014
H           0.04570006405504   -0.93062595743109    1.59513980910988
