    19
        -40.91898908
S           0.76038080056475   -0.78636748847550   -0.11971773904503
O          -0.64878187060080   -1.14239748593803   -0.33873126693428
O           1.12151131017937    0.39137106991167   -0.88092673666084
O           1.03410207822775   -0.61314912005398    1.30879734634627
O           1.62534652311214   -1.99172964827766   -0.58300419107717
H           1.24545424199948   -2.23597113618540   -1.45341460074105
O          -0.05623051915064   -2.42149903601358   -2.56484912505240
H          -0.53789306478241   -1.89601021004831   -1.89628453911252
H          -0.46998090126776   -3.28762742606313   -2.58546754375715
O           0.96307066962599    2.75035049902538    0.15297824059965
H           1.16025254474685    1.89554992004203   -0.31742628929508
H           0.34660497774330    3.22441154887171   -0.40974662624743
O          -2.09974084766527    0.62418350692313    0.88687342147940
H          -1.60824044900605   -0.04913416509266    0.34342955252121
H          -2.75981348451968    0.13331910563261    1.38104491018419
O          -0.02474382684239    1.46891886244755    2.08452710078660
H          -0.95270586881607    1.24024685129414    1.71318207957405
H           0.51017839169821    0.56293814454065    1.87725638569044
H           0.39122928476897    2.13259618745767    1.40147961079342
