    19
        -40.92122933
S          -0.42339158553698    0.93928247510381    0.47418685047940
O           0.48098386501487    0.85015413264214   -0.64922178408287
O          -0.80216325394473   -0.50740296617068    0.89523288534676
O           0.08493056263917    1.66683383359013    1.59275892512827
O          -1.76369980989344    1.51431656066942    0.03640927561477
H          -2.14836092549105    0.95094211682471   -0.72544373268920
O           2.60234950766283    0.81570291442761    1.17347798119391
H           1.85943528091211    1.33629386542015    1.52563500933236
H           2.53877986038589    0.92308998237767    0.21851942699585
O          -0.32399835267685   -1.30769341007295   -1.96616421894749
H          -0.26632941992679   -2.00358571447687   -1.30761374129991
H           0.14052053371193   -0.53382288302063   -1.58750283794481
O          -2.55520351264685    0.08775409651461   -1.91401981381123
H          -1.80393254849069   -0.55325390773707   -2.01155455748687
H          -2.56527064464263    0.61785042748874   -2.71465740927423
O           1.42972400412900   -1.48466208924055    1.65719520974892
H           2.01556189621769   -0.70045549349682    1.47916017762374
H           1.46545328574244   -1.63690012394432    2.60447900285045
H           0.03461122841590   -0.97444380670770    1.21912333246292
