    19
        -40.92019829
S          -1.06271801310774   -0.18507882185246    0.19740387143103
O          -0.12056179324642   -0.73476083707059   -0.91126869446909
O          -0.25785818866921    0.64430476096482    1.06354027893234
O          -2.19201292195605    0.46290060840588   -0.38768027067378
O          -1.51535305006648   -1.44869924359920    0.91683690319061
H          -0.70559043545613   -1.98761162888436    1.23079354361892
O           0.56780977364465   -2.65145648547821    1.74461257833781
H           0.51846273671259   -2.76746435850814    2.69660370118490
H           1.27159723625225   -1.97406321241388    1.57934513744851
O           2.09620164440772   -0.55358308533493    1.29759531288855
H           1.29869001842256    0.01445919353281    1.32269932052813
H           2.48743342903808   -0.43731357273867    0.42876582761686
O          -1.37379867142882    2.33714491946597   -2.13046903753201
H          -1.81839758978687    1.76105394710727   -1.47888066680724
H          -1.80088682783758    2.17069378140423   -2.97287385613752
O           1.00370385078731    1.52021939558645   -1.28075807489526
H           0.26718424998625    1.97115374920337   -1.75237326431506
H           0.91226203213981    1.79345169666064   -0.35986647296591
H           0.42383254009900    0.06464917355711   -1.20402611736689
