    19
        -40.91779614
S          -0.99362765135828    0.08803399916708   -0.74070803201745
O          -0.56739059816652   -1.27854441122795   -0.86615764878193
O          -0.74843557352197    0.55761327298365    0.69766660652493
O          -0.39234406181054    1.00049305623217   -1.66867923174589
O          -2.53022437116036    0.18531154747782   -0.87684877901730
H          -2.87579009695301   -0.32415717194572   -0.10750538768027
O           2.15030888927040    1.61433476807424   -1.26571453749006
H           1.24378905651684    1.39032505493252   -1.56807432510006
H           2.25516500422831    2.55621185430061   -1.41283273267968
O           1.77906163011724   -1.91529787849923    0.18890612594786
H           0.87710877863201   -1.84505231941140   -0.19098052937837
H           2.36659273199876   -2.07602140573086   -0.55232538008210
O          -2.91877837258799   -0.84309335109358    1.49408484181011
H          -2.03133082468519   -0.47061895980868    1.61243978493441
H          -3.50900569398923   -0.35864739619843    2.07699088475475
O           1.66878220663055    0.53776167545683    1.07604146378972
H           2.00398934995529    1.02033279108403    0.27432404511312
H           0.36895481654636    0.58663463807274    0.93288981508306
H           1.85317481029127   -0.42561978393244    0.89648302591586
