    19
        -40.91372199
S          -0.18668046048626   -1.66568372107602    0.54007802907542
O          -0.29175851066330   -0.90105085830543    1.87103293079872
O          -1.45206639964012   -1.66233060264908   -0.12951214316292
O           0.94160945341822   -1.22663555107861   -0.21006311779539
O           0.09148760778978   -3.11769219888220    1.05359325132770
H          -0.74580973339264   -3.46305498413186    1.35548047447837
O          -1.53140500387594    0.92806029051588   -0.98371929783869
H          -0.79433923559260    0.94875839328382   -1.64418115310752
H          -1.72884008545316   -0.01106902797647   -0.84287567836957
O           2.09107117601896    1.33193318792757   -0.10159547446138
H           2.00317941793699    0.37245336592128   -0.02554346374745
H           1.41676688572307    1.70137353382803    0.47930962458761
O           0.71310023870624    0.72172494225587   -2.38173078325956
H           0.88374316452770   -0.21191223426868   -2.22351913738309
H           1.31464604283563    1.18526099759429   -1.76752016420217
O          -0.44471409238772    1.53034908745426    1.23143756818400
H          -1.05642360598615    2.03383720910378    1.77311232728894
H          -0.32284681554637    0.10838029939811    1.68184495492386
H          -0.90072001392311    1.39729788104987    0.32437123265177
