    19
        -40.92019813
S           0.70913837940180   -0.82197530459319   -0.13522461034165
O          -0.33142232050627   -0.86585683275036    0.86547634851246
O           0.52866710160947    0.50777116607362   -0.92162139041091
O           2.04108032379192   -0.92413037573725    0.36769568224058
O           0.48425019512085   -1.88315860394318   -1.20398466066471
H          -0.42036394853517   -1.74311644847035   -1.65888940446982
O          -1.82983374537886   -1.50600304324881   -2.19054833796543
H          -2.20636894882532   -0.83079323925883   -1.57073854984806
H          -2.35934699358539   -2.29988197675605   -2.08333820674623
O          -2.51131295636186    0.14484164255722   -0.25541450878811
H          -2.29845022458052    1.07658913708578   -0.34412390898136
H          -1.81208195743340   -0.24889190005271    0.30626850677976
O           2.65821907660103    1.26047208934021    1.80498874649845
H           2.55537217813859    0.38252042067849    1.38941138622237
H           3.47037159697339    1.63098924203408    1.45442525822477
O           0.15132813351283    1.87663019015326    1.19183816846157
H           1.07631217689913    1.88277962843342    1.52765192141613
H           0.37375558413589    1.20703275856432   -0.20857843946038
H          -0.27931366097332    1.15418144990940    1.66470599931732
