    19
        -40.91188296
S          -1.19081328486361   -1.25734671890730    0.20229841350046
O           0.19013339522304   -1.28738595858023    0.86368949209793
O          -2.17465173273632   -0.87088749281511    1.15994955053299
O          -1.13684710435814   -0.53212970257564   -1.02934135193155
O          -1.40717213806399   -2.76948800204256   -0.17076887285078
H          -1.74612633774645   -3.22219432029713    0.59939150322979
O           1.91154228473696    1.90241326029547   -1.21029814461921
H           1.89566585794532    0.94375592779492   -1.42024169624205
H           1.98864588758483    2.36155260950405   -2.04798264715309
O          -0.44552818547516    1.94512071036588    0.06772919928543
H           0.44049741938459    2.07834445671852   -0.34039175965605
H          -0.87417631798281    1.25931031580206   -0.46154382261180
O           1.50602487190598   -0.73057921921549   -1.65347206961157
H           1.75088448679525   -1.19698490611530   -0.84985500171396
H           0.53527343297941   -0.69609719373805   -1.64766624815094
O          -0.14744053488513    0.68726823792002    2.29546986583615
H           0.17414741521865   -0.46566102265026    1.55979541586164
H          -0.21003983682997    1.34165804376051    1.53045596773506
H          -1.06001955870767    0.50933097474994    2.55278221648394
