    19
        -40.91505824
S          -0.44844399675103    1.21272957879024   -0.75649602970932
O          -1.68190872972128    1.56405817893928   -1.35735969590812
O          -0.46491819222681    1.06844190483683    0.68504066425016
O           0.09623779001876   -0.09655360114842   -1.37314792362529
O           0.66976532549998    2.22156510363664   -1.11890800401717
H           1.43950398036422    1.98008304207887   -0.55668040399938
O          -1.26366735647098   -1.47953919867998    1.28164761702680
H          -0.35941027021760   -1.83561246081547    1.23397520080157
H          -1.14147411122050   -0.51938132422311    1.33887628650295
O           1.43424702930884   -1.62018180160987    0.62262428495701
H           2.03083538657568   -0.94122499682737    0.95192877871157
H           1.20541090490244   -1.35055195415348   -0.27465521576928
O           2.12733435403531    1.27191420688156    0.88995723038615
H           1.18260297660996    1.12162208819767    1.10366345123853
H           2.46563708819540    1.89668126130662    1.53553356629497
O          -2.00592769345918   -1.42291501114115   -1.21778696395551
H          -1.88915979427085   -1.60891051689681   -0.24207015291595
H          -2.66706992137292   -0.72909902086156   -1.30347151497895
H          -0.72959476980067   -0.73312548828824   -1.44267116524483
