    19
        -40.91167207
S           1.52211571451869   -0.31580251248383    0.18800217403623
O           2.37048734375883    0.08132137807001   -0.88922306418753
O           0.73827015936607    0.89856143549143    0.69248130330572
O           0.65520186165697   -1.43083150573339   -0.03484540724708
O           2.40770354598995   -0.68338817193774    1.43116759424085
H           3.13992622428140   -0.07097606331557    1.46920254051697
O          -2.29727773689687    0.53714875438023    0.51506133129710
H          -2.13463215395618   -0.28477832231846    1.01918359437509
H          -1.72847399358249    1.19858314262267    0.91550745427050
O          -1.41346179542362   -1.75525911559192    1.67612413634884
H          -0.60457488500933   -1.72002835089141    1.13557036114928
H          -1.83833887351303   -2.59140148568183    1.47496698301356
O          -1.02468387357346   -0.00630201600029   -1.77764593118119
H          -1.67400097142480    0.19817564541649   -1.06515929779611
H          -0.49200073035319   -0.73268887251713   -1.43162688416212
O           0.53173953757756    2.04058892760629   -1.49194539540295
H           1.37587764655634    1.73964590506654   -1.85094433467462
H          -0.14986204136880    1.37928815950086   -1.81155932302739
H           0.61598502132989    1.51814308822076   -0.16431784495800
