    19
        -40.92123231
S           0.36785751382626    0.24566670135928   -1.12825324708625
O           1.55046779115564    0.76010655418667   -0.51833447122703
O           0.22510241334071   -1.19560949091593   -1.07881321070293
O          -0.88768149997319    0.86520995217360   -0.51473631702773
O           0.29471271851338    0.71142965307724   -2.59724581275847
H          -0.52344035621358    0.27998980311976   -2.94657261395451
O           0.32805429861595   -1.79784245109264    1.52712435831126
H           0.40390713060381   -1.68008804162997    0.56017332056488
H          -0.03716335458308   -2.67348702797075    1.66843602048163
O          -1.85822951734969   -0.74711199693952   -2.72785328388247
H          -1.29588174214848   -1.30200059627585   -2.16346719390780
H          -2.46145548440982   -0.28172658986975   -2.14117024884046
O           1.67474806484322    1.74831053337934    1.98299270343270
H           2.35941684887451    1.24415782096114    2.42787087747620
H           1.76044164532457    1.53894790857193    1.03425452388964
O          -0.71190542847533    0.62123569487475    1.93502897531069
H          -0.87695745612073    0.80945083743231    0.57570458661236
H          -0.40563090214213   -0.31240573400601    1.98073223088471
H           0.09363731614786    1.16576646956924    2.12412879106212
