    19
        -40.91255763
S           0.54080376660251   -1.18990209680634   -1.05884749117696
O           1.34732611896082   -0.07691079199938   -0.63081524825685
O           0.79563299821873   -2.37330082465105   -0.13527007651772
O          -0.84445093139797   -0.91948799840376   -1.24953344263252
O           1.10245809497445   -1.70880640103225   -2.42902429490127
H           2.04832941993249   -1.82600783275251   -2.35459773373023
O          -1.32943072616684    2.42615830417565    1.01444737593602
H          -0.77713912304263    3.08709851008786    1.43348959976471
H          -1.04141308072634    2.37172226619814    0.07776428790940
O          -1.37296328507703   -0.23970400898548    1.41188242127659
H          -1.49088080421696   -0.52752030428633    0.49733055630165
H          -1.45319507630027    0.73760449930719    1.39736130336525
O          -0.38356387615700    1.87123975541701   -1.44874155446834
H           0.38987566865016    1.35637848646931   -1.17186608502976
H          -1.01235383277168    1.21694532678919   -1.76979392574757
O           0.99394091127744   -1.09769517592667    1.97889049888667
H           1.52861865003372   -0.37137018689179    1.63897080505218
H           0.04548295542170   -0.76871812003079    1.96089827335357
H           0.91292214180486   -1.96772338671783    0.83745475062363
