    19
        -40.91504919
S          -1.40879614848940    0.18279710627292   -1.06125624544867
O          -2.14632638005215    1.37170970964745   -0.78252319077538
O           0.00216190924979    0.55216445805205   -1.50919434536118
O          -1.35041466114308   -0.83859590136805   -0.06280384140805
O          -2.04443131868337   -0.48033702579601   -2.34671105158694
H          -2.41075501990457    0.21479184688166   -2.88999462582894
O          -0.17676084327941    2.29654702945640    0.86633142434223
H          -1.00239096067389    2.17833921067843    0.37447984483054
H           0.51936631548963    2.37778949463410    0.21027298569822
O           0.08416996085245   -0.06958525331276    2.18843807474705
H           0.03140108924694    0.88016512304533    1.97427122608948
H          -0.56224560714228   -0.48827756432084    1.60251296246706
O           2.37593640942830   -0.89047569774942    1.18441091303217
H           2.76904094384318   -1.53781710072297    1.77156631379150
H           1.57333638191547   -0.53884603161724    1.65271830075307
O           1.11975957346378   -1.58757407027018   -0.98746129219351
H           0.31173984188867   -1.93609716785517   -0.58644849980883
H           0.59049573088757   -0.32772523325812   -1.37594623754806
H           1.72471278310608   -1.35897295242372   -0.22266271578374
