    19
        -40.91983420
S           0.48477865378633   -0.10259997418379    0.76334688393397
O          -0.10358401268775    1.08664823627810    0.20728147734325
O          -0.15125277849335   -0.41427700846942    2.12266602055570
O           0.36721953352016   -1.25848546055905   -0.09873581128878
O           1.95149782961450    0.14412435509825    1.11236252416803
H           2.30584931981815    0.85530054098724    0.45938632850088
O           2.40413073557799    1.84302918907088   -0.69778727809149
H           1.54367632029773    2.26260152537870   -0.57390983590601
H           2.27886947259789    1.21154708905988   -1.44023810536117
O          -2.28763595191748   -1.67083708746307   -0.23338865965064
H          -1.31599761635210   -1.60687091380521   -0.29824436356884
H          -2.48276079014756   -2.57401625014180    0.02510264948197
O           1.49016859933545   -0.11397701541039   -2.28016763469791
H           1.14316406488278   -0.68949888679594   -1.57685392463099
H           0.75127915946615    0.07273103959598   -2.86333314159163
O          -2.47085856702257    0.36048165935863    1.49354100623002
H          -2.12241842169342    1.08355471925454    0.95747351398451
H          -2.65403199927671   -0.37075638271634    0.86170891690107
H          -1.13209356132663   -0.11869938460599    2.05978944375495
