    19
        -40.92052671
S          -0.76400456968776   -0.28597950130028   -0.20361471052964
O           0.09712326987936   -0.94841520168216    0.74415476773770
O          -0.19322251965584    0.91134225734840   -0.76863293305654
O          -1.15738808233515   -1.23790892629385   -1.33679279773159
O          -2.10789348486768    0.01704005427027    0.46509644528892
H          -1.90796523589123    0.21909122531809    1.45261714367477
O           2.18440434918807   -1.62498586090467   -0.81199512822723
H           1.53448378948415   -1.36689428844100   -0.13130857533548
H           2.36315724979759   -2.55784950626940   -0.67662892733087
O           0.06602153424897    2.46434180877612    1.41222936167091
H          -0.32935245557330    3.31649034059585    1.21713934176635
H           0.10060754510089    1.97623814346875    0.56786881392261
O          -1.18126281125105    0.53136111221434    2.75674394083197
H          -0.70647221227615    1.34838444243352    2.48070279330058
H          -0.52208530033885   -0.17183090411507    2.72249798341362
O           0.77315820937084   -0.68142359245606   -2.86569057162925
H           1.46484706439255   -1.06360026100208   -2.27853334017877
H          -0.46764098988209   -1.10577583435680   -2.08709817345243
H           0.75348466032488    0.26037447240671   -2.65875543419733
