    19
        -40.91990133
S           1.25730628784575   -0.24836635398433   -0.80340701044527
O           0.91871822413863    1.05017835143214   -0.17785076576416
O           0.39698339556968   -1.28991995727777   -0.26381053430172
O           1.25630455688531   -0.17975453641978   -2.23523260026256
O           2.72097664636864   -0.58050203065779   -0.31771404191502
H           2.62252230135321   -0.90936722538962    0.57329671372584
O           0.76283038816903    0.63916734730443    2.42781548171966
H           0.92047220456720    0.86378890363601    1.48579183536124
H           0.90824365990819    1.44403332835664    2.92773442563793
O          -1.42916294130839   -0.62092076344520    1.48026015122052
H          -0.81269721259699   -1.13369438879652    0.90680900434074
H          -0.83012230983036   -0.20734926543281    2.13255417007891
O          -1.36078432819595   -0.44290258384041   -2.33117507999697
H          -0.39993598250824   -0.31561482406700   -2.50640127259554
H          -1.43860631104863   -1.35122622867342   -2.02434515873901
O          -1.57723618619009    1.08978957684987   -0.31730678060686
H          -1.68877447643304    0.39591171304613    0.50410730147677
H          -0.56011994914227    1.26891063551810   -0.28358419324463
H          -1.66691797754966    0.52783831184293   -1.17754161564502
