    19
        -40.91833243
S           1.43123722537347   -0.92279835692069    0.28736768974135
O           1.65339451885239   -0.88252098615804    1.71131173721426
O           0.26708983149890   -1.75148299258310   -0.06296767302368
O           1.36118617467130    0.37802724670454   -0.34860598258942
O           2.68254324368240   -1.65471413392076   -0.35163064648827
H           2.83621668864433   -2.38321024415196    0.24225502758215
O          -2.23263441964014    0.78661609551692    0.87392644414989
H          -2.76134624104964    0.33563396179878    1.53474413919001
H          -1.36161304033068    0.99440080727665    1.31362548192025
O           0.10396235560459    1.22818193511941    1.96838992834705
H           0.61247236153254    1.76110533098925    1.35043112426403
H           0.63927281176841    0.41222825710256    2.06724381970696
O          -0.07662660359358    0.93457019841726   -2.43063411827380
H           0.61222199976571    0.74210151198018   -1.74408345476601
H          -0.23669042777182    1.87995660292848   -2.39718062116008
O          -1.62270571236371   -0.62283498230148   -1.14917764014906
H          -1.12810045352584    0.00611030268098   -1.78942691010876
H          -0.82269772192746   -1.19646870276176   -0.71087403148033
H          -1.95718260127026   -0.04490184175259   -0.36471431403653
