    19
        -40.91521619
S           0.11766279179295   -0.72543243564742    0.23273455729385
O          -0.15813103200969   -1.77267038335238    1.16404813493408
O          -0.79854526446323    0.45966766834388    0.56473088084239
O           1.47640604735477   -0.30850624486436    0.06273761938179
O          -0.38359253334949   -1.15411423381651   -1.18950218138718
H          -1.28455669606465   -1.53776229994973   -1.04469657403247
O           1.43103738543928    1.00325810725964   -2.26933580931770
H           1.68627309381302    0.45701448815267   -1.50368750807499
H           0.89541090556145    0.43517621784186   -2.82784341821512
O           1.17318103561625    0.16091687049068    2.79443095254608
H           0.66824830855614   -0.65598549023338    2.78737361705241
H           1.77783167956050    0.10052285315252    2.05034266543525
O          -2.56892754024868   -1.96220853598900   -0.02922636900384
H          -1.93209454429690   -2.19819749428303    0.66427490993449
H          -3.06039562936725   -1.20473184239479    0.29976110160806
O           0.09790632083417    2.52837491839658   -0.57565781957627
H           0.59790940506229    2.11545790322598   -1.32464056421300
H          -0.48774605710926    1.34282653071285    0.13277531886050
H           0.75212232333795    2.91639342287320    0.01138049595079
