    19
        -40.91793141
S           1.47133912544173   -0.34801845569491   -0.89608887015556
O           0.98965776820713   -1.08708287840074    0.25267986417442
O           1.22376989762840   -1.00732017011682   -2.15754383117424
O           0.96225356918309    1.03308589141893   -0.88967016311910
O           3.03840946340576   -0.22531265657067   -0.72387042166208
H           3.34370635564431    0.11796867570292   -1.55928306445882
O           0.40405703543141    0.25527746904401    2.41566822082434
H           0.71652936693827   -0.20542641218880    1.60081835771628
H           0.45408281835287   -0.39542021060055    3.11844867277874
O          -1.20164599091898   -1.59067172460501   -1.35545428687620
H          -0.38209806887799   -1.50738160385997   -1.89350971609827
H          -0.88412593489332   -1.94350293212615   -0.51568187856383
O          -1.90809994489367    1.16496756547685    1.60172666522774
H          -1.05438674932371    0.81130611965018    1.97434900419100
H          -1.94292980497096    2.09124316614392    1.84895566577138
O          -1.49329803731031    0.88788013188608   -0.88734663069952
H          -1.74454256306100    1.00341016939409    0.11030554796003
H          -0.43620955524313    1.06105862475271   -0.93124963109479
H          -1.55646874075849   -0.11606076931628   -1.11325351472988
