    19
        -40.92246925
S          -0.20523847303024   -0.80658484809867    0.67226062921578
O          -1.09738148597537   -1.40615118834039   -0.29256851064793
O           1.11775909703004   -0.47504863165296   -0.01331837852156
O          -0.72505565797476    0.34223724695975    1.35019769803137
O           0.21152284715468   -1.86684906475579    1.71476605688103
H           0.49640523364212   -2.64099309802594    1.16727234003946
O          -1.70177145936518    0.96859424545977   -1.42689251738592
H          -1.64474616404538    0.03507698240010   -1.16017413382554
H          -2.17309685499291    1.41618386769074   -0.71980533916053
O           0.71983903285330   -3.38928267650773   -0.33091819169194
H           1.46434932609147   -2.97724236630974   -0.77822215771260
H          -0.07883447875731   -2.94261869048478   -0.65607425038324
O           0.28562454738161    2.82142930870749    1.10359628251148
H          -0.17844394586155    1.99219555050048    1.32657495672114
H           0.90251119262261    2.98905701202194    1.81797112089993
O           0.84590232257729    1.66031904627803   -1.21273436582783
H           1.07494540541963    0.46623998248347   -0.57949214752767
H          -0.08113757317705    1.52501067642434   -1.52639764492737
H           0.76684706836873    2.28842665523237   -0.45604146665952
