    19
        -40.91384626
S          -1.81711239415335    0.67466605754737   -0.07268055657673
O          -2.08282293608254    0.52086321817412   -1.47546400348905
O          -2.05483150386220   -0.56509469561214    0.68566537668244
O          -0.48258958812732    1.19449750737791    0.20910308753137
O          -2.82984826285772    1.73992500134353    0.50893954528726
H          -3.67624086626528    1.49237833298304    0.14659292766747
O           1.29867663890039   -0.03321824811683    1.76637325185276
H           0.65515485403038    0.62692242565219    1.43295458398512
H           2.07984182544684    0.05424635360958    1.17688637581960
O           2.94112389178968    0.20003203990608   -0.35370405109728
H           2.29599998525115   -0.12918340193969   -0.99579465962235
H           3.14242780321423    1.10355418522416   -0.60423022686030
O           0.49287813482301   -0.49768976441973   -1.54307612547595
H          -0.16807986518757   -0.56155712390425   -2.23993697601311
H           0.18011447844169    0.26260207523691   -0.99999716500005
O           0.03306550708976   -1.85843568086264    0.65018933541655
H           0.30353293234888   -1.62240159622625   -0.28180024313148
H           0.63254520539190   -1.19776956337109    1.25865049180550
H          -0.94383585908769   -1.40433711119333    0.73132902152898
