    19
        -40.91864509
S          -0.71815709021953   -0.12724345791215   -0.92850673363551
O          -0.65851722287750    1.16883892886796   -0.29452939546422
O          -0.46043590372468   -0.17011024318059   -2.32548848835662
O           0.32227411354870   -1.04823325248320   -0.20232284792639
O          -2.04595540209125   -0.79576516744950   -0.57502859350319
H          -2.32802830223974   -0.42099432418379    0.33913394082584
O          -2.37213044388197    0.32577293222202    1.66342800932999
H          -1.92444138659926    1.11205839929013    1.32275012617498
H          -1.69771692585932   -0.15472224114246    2.19106909498659
O           1.86966244989108    1.92336097109008   -0.81794141170300
H           0.91234179120987    1.80961056343351   -0.66780827920116
H           2.22997811002874    2.30306900167847   -0.01388060596361
O          -0.26763831831130   -1.11737302889916    2.49106254829336
H          -0.36423374294686   -2.02811825238228    2.77616435534901
H           0.08730184570109   -1.14304859249752    1.58781005494530
O           2.22968388509328   -0.54281823251203   -1.75704396700255
H           1.18487320494432   -0.97244872347722   -0.76301758514106
H           1.66292004895936   -0.51873308800655   -2.53870502926840
H           2.33821929914506    0.39689781749499   -1.48714519275637
