    19
        -40.92218958
S           0.22811162579145    1.08292443368329    0.33918709160022
O           0.85657965957565    0.75640313776297   -0.93680944048177
O          -1.22114119642922    1.22451877275429    0.19918993971936
O           0.56999595629429    0.09605227260354    1.35854435413890
O           0.76182789088184    2.46912767023835    0.80463530300215
H           1.72536450083613    2.30649373507536    0.87774021568085
O          -0.95353266666468   -2.00179026365712    1.35212378775385
H          -1.37158775807522   -2.03703967242917    2.21520928837508
H          -0.28684702009213   -1.26453532522601    1.39924258394956
O           3.01868853336472    1.12031003470533    0.69918926174033
H           2.56349269334856    0.47725831633363    1.25889823830280
H           2.74918630948532    0.89730286129388   -0.20163163702802
O          -0.48827578785931   -0.93105601857116   -2.37420945317251
H          -0.69672829154835   -0.48237622555165   -3.19647936362053
H           0.12207178834144   -0.32318612821539   -1.87605208936875
O          -2.22013476640285   -0.90936830511884   -0.53812261947683
H          -1.81192411534809   -1.49837366453300    0.20894781502771
H          -1.92998320502057    0.06307674127548   -0.22261477546028
H          -1.61516415045459   -1.04574236236491   -1.36698850069741
