    19
        -40.92217259
S           0.00405805043330   -1.23890657616291   -0.61063095510117
O           1.07930396596747   -2.18614779408277   -0.68297865873573
O          -0.52009223866480   -1.06314736678079    0.75001114799520
O           0.25021561698978    0.04590096736421   -1.24101132166405
O          -1.21472078540354   -1.86043733671789   -1.43978605384437
H          -1.05093935402831   -2.79889901176148   -1.44329477123648
O          -2.03662920830822    1.29779918859783   -1.05224209935877
H          -1.20256626582180    0.86235691740792   -1.34343060907528
H          -2.73679611599361    0.66097395001662   -1.20785990086451
O           2.24618362647280   -0.62425256982703    1.17118053680596
H           1.82669970176412   -0.98327926839410    1.95676106527076
H           2.01114171462006   -1.23450268194271    0.44989811410655
O           1.39248881766457    1.79933529018501    0.43882193949836
H           1.90680666486472    1.06647502995663    0.84418411660405
H           1.19367250719367    1.46051444669840   -0.45174198656603
O          -0.92085591047760    1.32488139348275    1.25281601140832
H           0.05932850587786    1.67107451655732    1.00349095940989
H          -1.49307342747623    1.52095979757933    0.43799902075678
H          -0.79422587593206    0.27930109763622    1.16781344477256
