    19
        -40.91483135
S           0.57963709031550    1.23191744874254    0.58854464247203
O          -0.73157785999020    1.33540876515602    0.00272628976650
O           0.47096130149948    1.06727048265503    2.09782795250523
O           1.45104022783636    0.25481720354738    0.02899576434438
O           1.26038117646693    2.63734121984624    0.45162081785601
H           0.62233655214984    3.29851771767228    0.71319855239978
O           0.32811095838778   -1.62731499034199   -1.69756535786217
H           1.02221728955175   -1.10237512329921   -1.27794160739021
H          -0.13847088936705   -1.00062957152545   -2.27845918488399
O          -1.19083867893776   -1.38117985353423    0.46462726034090
H          -0.71822555267046   -1.66874562209329   -0.35615183748623
H          -1.35297089294164   -0.43754297981165    0.34625241152730
O          -1.10634398536262    0.53642167149874   -2.59779087543592
H          -2.05052178698103    0.45114602925084   -2.74410581710346
H          -0.99673073731411    0.92819522909578   -1.71588422622461
O           0.66105038511624   -1.39639126568282    2.26603855456291
H          -0.12391791614714   -1.56713379065306    1.66250320282428
H           1.44345325265724   -1.59163532359062    1.74022392348284
H           0.57041008575997    0.03191276308481    2.30533953422334
