    19
        -40.92453835
S           1.12799233553685   -0.96251222880137   -0.35304552080291
O           0.65900828116005   -0.37553750810172   -1.60306919969581
O           1.68174410203400    0.06273021659571    0.52465387814209
O           0.11334547786841   -1.76301585443975    0.29950394368903
O           2.30861031940212   -1.94676412140209   -0.71677774634631
H           2.95516784130182   -1.40333659669097   -1.15781800412642
O           0.45936477754859    2.12162850227411   -0.46677069894652
H           1.05401848405625    1.46195695776734   -0.02677812199855
H           0.44048246708451    1.83149497784697   -1.38629359117689
O          -1.67539574486197    1.26565768799136    0.56148519007284
H          -0.85851571572146    1.76886954253241    0.14620734240258
H          -1.91359727218309    0.53468852278931   -0.14948375742491
O          -1.89136985812859   -0.57999400687731   -1.14114505768028
H          -1.87907827713361   -1.41274314778977   -0.65518905153426
H          -0.97355179728180   -0.50990239360884   -1.50533279718621
O          -0.45761909894793   -0.15084481868671    2.25397604979489
H          -0.29798314735439   -0.91937282144767    1.65277195455025
H           0.41767177359233    0.24148839838002    2.35538566840000
H          -1.27029492797928    0.73550868162360    1.36771949983591
