    19
        -40.91286409
S           0.45212281843135   -0.36446319802363   -0.08181944660337
O           1.78295773539377   -0.17239361073177    0.67328647409933
O          -0.38965042982458    0.78975168252014    0.11279788653832
O           0.69801188574136   -0.72307426425896   -1.44391309532718
O          -0.17250109224598   -1.56220868333550    0.65811846837837
H          -0.66302076636285   -1.15780675019801    1.46010706000289
O          -3.13269502663338   -1.83701168255023    0.64599665062595
H          -3.56201341331773   -2.67149425288099    0.84561286319980
H          -2.30192277083916   -2.04439531443649    0.20507784768546
O          -1.59985284653281   -0.25435910593472    2.28340489250966
H          -1.38228314394219    0.51391397661781    1.73112441284412
H          -2.43399492174864   -0.61228455102521    1.93259930895850
O           0.76121640763608    1.89159194302948   -2.13870623820943
H           0.11274525858065    2.03067060417127   -1.43690820687259
H           0.70369526646540    0.94140820600236   -2.32402731620925
O           2.97309037168429    1.60633201550874   -0.72644914127830
H           3.61532818471147    1.19104615305220   -1.30694781769616
H           2.21505476785145    1.88617751553943   -1.30155759735295
H           2.32371172523803    0.54859932699634    0.21220300463681
