    19
        -40.91015980
S           0.31213638515380    0.73681767470553   -1.74441814441774
O           1.03621657441277   -0.44492469349264   -1.36489199882222
O          -1.18588580197425    0.45584100109235   -1.75791433796042
O           0.63223844167692    1.92312143163526   -1.02131952016624
O           0.59155276312447    1.00172656033289   -3.26601289372131
H           0.50163501111827    0.15714348437248   -3.70217616506494
O           0.63201088801948   -0.62992412375055    1.28925348518799
H           0.91991737593506   -0.72349691088879    0.36313748273612
H           1.07219161917054    0.18214836035828    1.60749933238434
O           1.68463423097284    1.84280275325036    1.48586289682380
H           1.27485352573778    2.03641838796925    0.62401108338915
H           2.60473542428381    2.10085120799753    1.40965874022930
O          -1.43692873977494   -2.61163063282287    1.24127705001164
H          -1.56979492786620   -3.17693412027727    2.00343989022071
H          -0.56578595102214   -2.20407048814720    1.34695284565152
O          -1.84086297306977    0.01357803850918    0.59600007348086
H          -1.53623970158752    0.29803790463434   -0.77085128021651
H          -2.18237592711483   -0.89510000660506    0.64862504554934
H          -0.94424820714332   -0.06240580888996    1.01186641468961
