    19
        -40.91597556
S           0.16135275956284   -0.27972016556163    1.80919881613451
O          -1.19229498393269   -0.77843411110526    1.97826754265400
O           0.89281038315153   -1.09477478823053    0.82005565259781
O           0.24553224004233    1.12607341302743    1.52506547645080
O           0.90813160599539   -0.52750456847604    3.17960073826417
H           0.71813360402573   -1.44368279454756    3.35585189687103
O          -2.45023917532784   -0.47165262453270   -0.24997578608661
H          -3.21905397453082   -1.04537601215353   -0.22401396756977
H          -2.05466053659654   -0.49836998141447    0.66343287402309
O           1.43739282253951    2.14632957786533   -0.56391722012858
H           1.08728206464693    3.03932093317038   -0.56909684397678
H           1.06883018538832    1.72847315200699    0.25071169624086
O           0.82772855246771    0.60246687008284   -2.57211782210570
H           1.67243637992162    0.32363121491420   -2.93141324868287
H           1.04287854680215    1.23701611284522   -1.83136778261369
O          -0.29895292210152   -1.28728037140248   -1.31972924588243
H           0.12140624544411   -0.53336072107142   -1.89408669190112
H           0.26089601736639   -1.27368082185445   -0.39938749908564
H          -1.22960981518602   -0.96947432361732   -1.02707858533221
