    19
        -40.91504923
S          -0.60092395437225   -1.22712530124143   -1.13074382416316
O           0.45578920761095   -1.93576347269592   -1.77586001536560
O          -0.53309288999561   -1.47047407003688    0.37387607077094
O          -0.74920150788090    0.17069274826378   -1.39125292814241
O          -1.96059100160853   -1.91028205303260   -1.55606838623356
H          -1.78919195274524   -2.83432316253032   -1.72731547200406
O           2.31023712816387   -0.83716347715272   -0.09951060857625
H           1.98969234454213   -1.21797730215940    0.72135203121314
H           1.86787745229177   -1.31807461537617   -0.81399940050008
O           0.18102169077370    1.98334665282772    1.96907640522463
H           0.71091878489386    1.92851796749341    1.13041828992214
H           0.07205972794486    2.91622715671569    2.15924710176324
O           1.34115265781297    1.69286771090453   -0.37701662649339
H           1.93444947812437    0.92532441312183   -0.28012040663502
H           0.61516727438525    1.37175384176652   -0.93052067474058
O          -1.79556383872607    0.51691855900700    1.11903638121495
H          -1.09780011130452   -0.68428460964979    0.82254047932025
H          -1.10425740887396    1.08077377690930    1.57456631262627
H          -1.84774311180222    0.84904526168568    0.21229528055729
