    19
        -40.91898071
S          -0.56379958232485   -0.81041306402325    1.29997041711519
O          -1.38611410877805    0.03979832697528    0.45390521768115
O           0.59721157919454   -1.30770487469712    0.54134668580646
O          -0.18433664230339   -0.20815691355332    2.55087713281987
O          -1.43671276197582   -2.08924347876218    1.63030066183600
H          -1.10533942537333   -2.41146957815314    2.46426736079002
O          -0.87920149775784   -1.15363539546875   -1.85025710529500
H          -0.31107939502931   -1.84651696892223   -1.49977636986889
H          -1.26202522132957   -0.72622936839332   -1.05611207788900
O           0.16979092721424    2.05801684958624    1.18589658572788
H          -0.63398418725336    1.65787492319083    0.80451691316778
H           0.24078409183139    1.60004599626912    2.04059737955835
O           0.68113239671214    0.83254648627172   -2.50524700384627
H           0.07955456669055    0.04027007491548   -2.40565184208769
H           0.10950170393237    1.59371070704964   -2.62518996808515
O           1.78718693215408    0.72223416502927   -0.23842388643516
H           1.43395699213182    0.81459350689315   -1.21671010648170
H           1.25546151738425    1.40119613967761    0.33361470340394
H           1.40801211488062   -0.20691753389260    0.09207530206789
