    19
        -40.91304134
S           0.80416902463255    1.30681952614694   -0.98318395529012
O          -0.61480141136959    1.37954031567854   -0.75416225661201
O           1.45865302431333    0.53200588531148    0.16072847201818
O           1.26076934964255    0.80522579025206   -2.22777460183385
O           1.36490679160820    2.77060719761365   -0.81415981618040
H           0.78355977203181    3.26664954862846   -0.23994326159160
O          -1.16666023066546   -1.52406038162544    2.02697944049813
H          -2.00079776525805   -1.78122412267457    2.42222935875956
H          -1.29997362047027   -1.55845391222919    1.04545353403902
O          -1.45401694137714   -1.27318443055701   -0.58755803503514
H          -1.38083220119014   -0.32741711660104   -0.77606750886548
H          -0.67925362965146   -1.68183392821533   -1.01947223992413
O           1.00749753370334   -1.83503936838653   -1.58279129921329
H           1.64489169984173   -1.87910655852798   -0.86631856156013
H           1.18117750918003   -1.00377862706923   -2.04909649995388
O          -0.27656182236328    0.92222521276742    1.89964415970670
H          -0.89245290928154    1.22801762602334    1.21842062271082
H          -0.57942189474583   -0.00094674563383    2.12869241689298
H           0.83914773159899    0.65395407901815    0.99838005148581
