    19
        -40.91372202
S           0.19716311978464    1.27824790433880   -1.19447195474608
O          -0.48080941915760    0.41709012013356   -2.11544693605102
O          -0.81441736741096    1.91867975805026   -0.22834820025562
O           1.29816791597924    0.72269705439535   -0.48195121725026
O           0.69628172377555    2.53735204361188   -1.97879750483388
H           0.01096130608604    2.75406015173621   -2.60713093507427
O           1.21851838498317   -0.26599997287646    2.14533643790820
H           1.46317922037936    0.28569692698918    1.39047448689599
H           0.26523786379220   -0.16428994350798    2.24317982404086
O           1.46666540136929   -2.12599190698330    0.15759916197761
H           1.86298862571247   -1.45399370577873   -0.40560910849661
H           1.47340631800468   -1.72871226660089    1.04972613069348
O          -1.07119402311850   -1.67738851779226   -0.46907079504693
H          -0.95414047667152   -1.11188066425655   -1.24834114203977
H          -0.17150643333288   -2.03470957471587   -0.26229784016586
O          -1.51376925437376    0.06415188476340    1.32580820053796
H          -2.44729363313712    0.07897009916298    1.54813943238458
H          -1.38270204952983   -0.71221537077056    0.67118628360389
H          -1.11673723303252    1.21823598026128    0.46001566585389
