    19
        -40.92159001
S          -0.94903864549184   -1.12520930315812   -0.11397074001255
O          -0.76968178439336   -0.45154933528959    1.17898309420268
O          -2.24705541280539   -0.88250566201535   -0.68231235268800
O           0.17386381433879   -0.84592844771693   -0.99636769338770
O          -0.85821874407748   -2.67875989555789    0.18530459536938
H          -1.74211256824689   -2.91809452949992    0.44670861521912
O           0.53139940463446    1.79796552396577   -0.95368989194610
H          -0.40898521339767    2.04015000524722   -0.77901101635800
H           0.46845330854746    0.88985736351609   -1.30993521516320
O          -2.01104473453492    1.73290496410312   -0.24041398140435
H          -2.13160494260611    1.74900038241437    0.71190778190903
H          -2.24407852961858    0.82457233786135   -0.51518360444264
O           2.54303591956897   -1.01149034549931    0.10584468473514
H           1.68900468442968   -1.15801066478408   -0.36524610391624
H           3.21053823366246   -0.87726616918923   -0.57000495158264
O           1.29803050959161    0.91083463286590    1.24338534838485
H           1.05939721210714    1.45011130224921    0.34898902298898
H           0.41745003326611    0.34194645057694    1.36133474849280
H           1.97064744980966    0.21147138773792    0.94367767130434
