    19
        -40.91638448
S           0.74759665344439    1.46953619020935   -0.31775207600103
O           0.85877140103233    1.84895179512743   -1.70200794477285
O          -0.59448028195968    1.37294138881180    0.20185530925227
O           1.51499128184654    0.24043283797530   -0.02235771941184
O           1.45947055524363    2.61606890921551    0.52331675365001
H           2.18269717648984    2.89965057569099   -0.02846892728999
O          -1.34036939802600   -1.93802589675694   -0.65163060625596
H          -0.90778990965076   -1.36322190427588   -1.33422587723064
H          -1.39172159170776   -2.81683463314512   -1.03286257807977
O          -1.19808117188513    0.34721709900895    2.48582147566354
H          -1.00193167959046    0.92158840928532    1.70059678102871
H          -2.14430988862442    0.18719414950421    2.46284011027951
O           0.17639273074095   -0.61742199665539   -2.35661888299488
H           1.05493585154109   -0.96750435925963   -2.18405040666425
H           0.28178250116129    0.35027860201305   -2.26024633548176
O           0.21715501325652   -1.38538182465508    1.28834847852977
H          -0.43447029714733   -1.69736961857113    0.56145119973408
H           0.85682793029017   -0.68932547302660    0.75725027510227
H          -0.33746685618525   -0.77877427050318    1.90874099094459
