    19
        -40.91410371
S           1.29516866372574    0.23782520995593   -0.79121068560398
O           2.26858145759230   -0.72098995438278   -1.20971181632150
O           1.10337192060108    0.11421359146386    0.73909385844225
O           1.46806915840910    1.60741315653597   -1.13652349648677
O          -0.10698324622490   -0.21000792946355   -1.34347989003642
H          -0.11535364150348   -1.20094548675444   -1.28575936511041
O           0.54392053427051   -2.71034904621467   -1.14886447854534
H           0.54693146033681   -3.26485577160741   -1.93283579493336
H           1.41370617312194   -2.26821184408202   -1.10970373022848
O          -2.06037016412401    1.27041468288794    0.14994808158157
H          -1.72533241081065    0.95078202441558   -0.69474100943412
H          -2.07148204566349    0.48636950047780    0.73028427946781
O          -1.36033814708054   -0.88893723887095    1.67703969906400
H          -0.42699709390330   -0.81044431158818    1.43540512144788
H          -1.39960851085881   -0.90510607545608    2.63502238728630
O           0.12550712045774    2.37223523815409    1.10572449216016
H          -0.80055278819533    2.14904166084484    0.81683657152726
H           0.73168444308980    1.05481565237458    1.03561219625197
H           0.57007710668820    2.73673694130920    0.32786358948785
