    19
        -40.90985761
S           0.16671842198972   -0.56629972910894    0.49208797649506
O          -1.07411381336260   -0.29212094500686   -0.19047981505000
O           1.21016848833826    0.38049443479776    0.22249444461734
O          -0.08611357235839   -0.67347348411017    1.99376888917217
O           0.63585517258689   -1.99910051898167    0.14569590810733
H           0.39185538691416   -2.18525260306430   -0.79192891104523
O          -0.49485260916068   -1.87978729829547   -2.21659318648704
H          -1.15404223669079   -2.49194627753474   -2.55301059631656
H          -0.96512283259408   -1.18093321560406   -1.72410145367063
O           2.04551449961574   -0.36039924451614   -2.40520758542697
H           1.90728500674599    0.00340746647493   -1.52331455649082
H           1.25201335781252   -0.85031515294373   -2.63699957363418
O           0.27365979338114    2.71150808125077    1.19944890307874
H           0.70822682388883    1.97577659352684    0.73024633008311
H           0.95794383551850    3.15153397551232    1.70824497449417
O          -1.71940940568730    1.23135314135097    2.12739201685137
H          -2.18526158571613    1.01979231070784    1.31059559078951
H          -0.78383389142712    0.05503935346551    2.21968741016751
H          -1.08649084963822    1.95072310220195    1.89197322436446
