    19
        -40.91329952
S          -0.19306778926998    1.13685800802842   -1.25301940998242
O          -1.25524290669750    1.00193438664277   -0.29490559737135
O           0.74544853709218    2.25009108304280   -0.81334080793238
O           0.50117427786372   -0.06509361340041   -1.58851240674159
O          -0.79122088698045    1.70856446336818   -2.58579050252315
H          -1.33163105395055    2.46887000857993   -2.37704139077881
O          -0.15942543847073   -2.38475635943946    1.60649459511392
H          -0.76269440484650   -2.22279444224288    0.84749741968643
H           0.00211434294666   -3.32900201731185    1.63085990888178
O           1.73226176179427   -0.63722803524033    0.85074840363535
H           1.52294457763185   -0.58906692165260   -0.09223961072553
H           1.12758426691039   -1.31378198043533    1.22946665962759
O          -1.51286271330908   -1.69745844387287   -0.61389415598176
H          -0.77819691206231   -1.55907796739136   -1.22463361228320
H          -1.77725886908171   -0.80217253163014   -0.35855847874439
O           0.84390208314867    1.66641672067610    1.58695072240815
H           1.30310243522129    0.77790033523230    1.46071256051255
H           0.86696422503145    2.12470719041503    0.23817021000624
H          -0.08389553293624    1.46509012650050    1.75103549324933
