    19
        -40.92174067
S           0.49487532257021   -0.57510004502856    0.47855507797970
O          -0.81338742851530   -1.05543382632556   -0.12235599983834
O           1.48616719970935   -0.39939436565587   -0.56173251581510
O           0.27912526906083    0.58106802728551    1.29805521347798
O           0.92921898663714   -1.75145777643119    1.37960911793912
H           1.31778492667370   -2.42946786640524    0.76836985818565
O          -2.09377247204185    1.84624177923015    1.41690610468178
H          -2.62136046671738    1.46066170571271    2.11826392617481
H          -1.19371716601681    1.48175137173788    1.51530056316651
O           0.42556733196435    1.97915588340955   -1.29978122590071
H           0.54471764925807    2.47774545437258   -0.48715103442787
H           0.96428751448293    1.17699512141340   -1.19988567315351
O           2.09268035758424   -2.97659205660837   -0.59131734155261
H           3.03453666802941   -3.14746577945843   -0.51060824691904
H           1.99743112837564   -2.07072488109594   -0.93939420190167
O          -1.99045117219514    0.90088210821205   -1.06664184894671
H          -1.20424253136065    1.40759955200419   -1.37956690861237
H          -1.38511300787574   -0.25382798486181   -0.58426374670356
H          -2.26434809962191    1.34736357849128   -0.23236111783538
