    19
        -40.92174075
S          -0.83628624522636   -0.25267653249557   -0.19907594280493
O          -1.04732431196033   -0.25235504504868    1.23314831436621
O          -0.35686561782970    1.11236207995653   -0.65727115074836
O           0.04370011652999   -1.28106476964943   -0.67141040010783
O          -2.20405734233580   -0.40604695237320   -0.89897957883024
H          -2.84390340552673    0.12848895721679   -0.36119965415990
O           2.37594935513809   -0.73936991838380   -1.90035192633499
H           1.55398330881817   -1.09750739350524   -1.51456415105540
H           2.22680207133146   -0.67321529695014   -2.84495066361826
O           1.60317291984732   -0.51381772554317    1.71685309650363
H           0.63690632063559   -0.43312513564428    1.77613664692654
H           1.76996910330564   -1.36124806872835    1.29585514183520
O          -3.44892966712237    0.83926456450229    1.00861540431193
H          -2.59967037726054    0.61267818842429    1.43082896432585
H          -4.13249880416549    0.35431872532183    1.47795719827562
O           2.06412318494245    1.27437756091188   -0.19200965581335
H           2.40688335728910    0.65928327082455   -0.88101433510998
H           0.70123778515267    1.27474890491006   -0.46467147262818
H           2.08680823859625    0.75490459609875    0.64610417459768
