    19
        -40.91989998
S           0.05918607835522    1.34011618800289   -0.50541711534455
O          -0.78986859751780    0.27033676997199   -1.09503031109554
O           0.68548336067968    0.84967330630375    0.71185273231830
O           0.99298644317468    1.86950494785439   -1.45251159915573
O          -0.95153363798584    2.46779406369219   -0.07900404655408
H          -1.47339741799054    2.07885266018740    0.62891719767203
O           2.55017653896825   -0.26499291726827   -1.02030731379378
H           2.84002494097453   -0.02878977863906   -0.13345170836611
H           2.11376648766045    0.54517928822049   -1.36170539437634
O          -2.34083037447079    0.09176025200019    1.00001870644054
H          -1.87734244364489    0.09616977920996    0.13610799937470
H          -3.27737915109861    0.01235138538214    0.80937416690664
O          -0.04934715263803   -1.45676826619925    1.63027020383795
H          -1.00298277625032   -1.30477414017792    1.69859033167614
H           0.31810499206458   -0.54507889320484    1.52920513064805
O           0.52995669163633   -1.80213597077376   -0.78444390002136
H          -0.10441738944546   -1.01990241919607   -1.06718154616202
H           1.44867188443777   -1.35121688569259   -0.89979849377621
H           0.32874153316315   -1.84807937971155    0.25451495987119
