    19
        -40.91971812
S          -0.98914214881811   -0.29213311649446   -0.96771579503450
O          -1.54690634271034   -0.10484027905435    0.44851084589646
O          -1.98512351914102   -0.93608037483153   -1.75748575151920
O          -0.42378957809524    0.92900666248961   -1.45135616814291
O           0.21396986814160   -1.28037835079109   -0.73931303285359
H          -0.23940491561648   -2.12349184247744   -0.48228860362267
O           1.38576508396788    2.47667823804800   -0.27603035904182
H           0.73699861668526    1.95991099050994   -0.79561702356156
H           1.58678992731519    3.25615055104862   -0.79584477394739
O          -1.60188431091916   -3.02581392353221   -0.15288511527122
H          -2.02669335471332   -2.78754862054371    0.67558882954763
H          -2.07104522852093   -2.53847800833471   -0.85217601988449
O           2.25637697617167    0.00247468243552    0.76816251692930
H           1.81553183079140   -0.58255707885926    0.13981998520856
H           2.38984040580007    0.84465190828222    0.31013185094384
O           0.12586905808809    1.15712674282439    1.82293500270211
H          -0.89512097195507    0.44342207177495    1.05810089202146
H           0.94723392416946    0.62047896148007    1.69501243675126
H           0.32073467749918    1.98142076990769    1.35245024435776
