    19
        -40.92071418
S           1.46075473017267   -0.17649976470222   -0.18140571344055
O           2.13726254236480   -1.04194821079057    0.75708058569012
O           0.41648123206248   -0.90031732408989   -0.93361142446768
O           0.91873494837959    1.02514460102535    0.40939623849449
O           2.53378066850572    0.26179023309047   -1.25523497425495
H           3.12566044550507   -0.48353015226530   -1.30437595598313
O           0.27548893444896   -0.72663095032752    2.56979651594387
H           1.05941775727091   -0.96868910040443    2.02204393456348
H           0.39266237603913    0.20578685563137    2.77427167002078
O          -1.65298895122650    1.49768821153895    0.14699744999172
H          -0.68603317201409    1.61025207696214    0.29691929663106
H          -1.72888965901646    1.44058193425443   -0.82910723643362
O          -1.20841811236623    0.69297363429891   -2.35360081387000
H          -1.67021708138466    0.16764890762423   -3.00878561401430
H          -0.51742315460093    0.11703181708745   -1.96998348541474
O          -1.46993104701143   -0.90029559895446    0.73234558402510
H          -0.77431324348475   -1.07346585954345   -0.00229229430926
H          -0.89774053686717   -0.90082163669254    1.58907101100942
H          -1.71428865682318    0.15330033625974    0.54047522577654
