    19
        -40.92071405
S           0.26705172305835    1.28610824569868   -0.68622169773121
O           0.04529335823376    1.12735458884540    0.76488230835690
O           1.64659727544104    1.59635469812606   -0.98299621034763
O          -0.24844068433292    0.14456848369954   -1.40576447124629
O          -0.58719483123070    2.54481783881834   -1.11307550422383
H           0.00030724650616    3.28036960280782   -0.96456867490765
O          -2.35007843266325    0.09542030159803    1.39148458628847
H          -2.54966800625054    0.28516213245326    2.30927261511091
H          -1.55461001919127    0.61672113879925    1.16422766500789
O          -1.23475014654234   -1.86478815683246   -0.02817282858677
H          -1.89442741226672   -1.38246662786041    0.51324785210330
H          -1.02813582120841   -1.23435971276618   -0.75614368329699
O           2.35260374091527   -0.92307390989539   -0.90860330993947
H           1.87530727575210   -1.25695343485829   -1.67392095820397
H           2.28169827611805    0.05885083804967   -0.97136200408025
O           0.86074031500306   -1.22638437983171    1.12485982849071
H          -0.04433017975908   -1.66828574005518    0.68774392356968
H           1.56743590938806   -1.24374942837627    0.37532245760027
H           0.59460042496316   -0.23566645240919    1.15978811844103
