    19
        -40.91021258
S           0.09849465881829   -0.58360108639260    0.57418070850926
O          -0.44260240179145    0.43857514850807   -0.47409535285349
O          -0.58221251977677   -0.38447064918916    1.81892127130875
O           0.05306686116276   -1.89903687311248    0.02464620234983
O           1.56924301319049   -0.12825061957200    0.69513738117138
H           1.53331372392017    0.88051727960924    0.80041761584837
O           1.37626448744013    2.40428909290080    0.47474257523931
H           0.48865054877267    2.40934169050355    0.10114411425212
H           1.99328500927700    2.37701472939135   -0.28160591821371
O          -3.00155063252120   -1.31189850068199    1.13460339584497
H          -3.09666879345046   -2.16788567464117    1.55727472440776
H          -2.20499434415856   -0.90517953038961    1.52560183274265
O           3.07070692633762    1.33005881300402   -1.36246850518645
H           2.76731065139553    0.48579826195388   -1.00913044616315
H           4.02615758180570    1.34268553710582   -1.27614576312441
O          -2.18149582206144   -1.14565620568746   -1.40219697939891
H          -1.56018616443411   -1.88335061160009   -1.34957482946686
H          -2.72104916016428   -1.20500054076855   -0.58225696065507
H          -1.18573362368675   -0.05395026092670   -0.96919508662951
