    19
        -40.91247216
S           1.07297162926463   -0.68050290339434    1.16949820000287
O           0.60579036428528    0.66451825359728    1.18777105111196
O           0.47216184207774   -1.62862620276881    2.05298580730003
O           1.06423603087643   -1.24222622448814   -0.24989276973374
O           2.62070995763631   -0.63592203585748    1.51713962057907
H           2.84011883311102   -1.48080943643230    1.90405727236761
O          -1.68806644590651   -1.54647388580737    0.40775254788814
H          -1.08344685214483   -1.62480103824124    1.15991290179313
H          -1.28997985386661   -2.05099939106875   -0.30586733624969
O          -2.64958061557744    0.78784049990247   -0.64942258868780
H          -2.33704632224526   -0.05911176740021   -0.27897954544550
H          -3.30291816627140    1.12303065549139   -0.03331185667243
O          -0.36460418529314    2.19478479379899   -0.83973302919876
H          -1.25266873541267    1.78689655320940   -0.92566925520407
H          -0.07015932860172    1.94541952272110    0.04992768838501
O           1.35065582917988    0.60864013592309   -1.88022320594150
H           2.19147415054750    1.04164964245660   -1.71488042310580
H           1.18857161536919   -0.47583284364588   -0.97793948675101
H           0.63178025279369    1.27252566182237   -1.59312559235902
