    19
        -40.91642161
S           0.47032384238694    1.84255905741135    0.57468130134997
O          -0.50632645896073    1.26529446322410    1.58311204441844
O           1.63371329665254    1.01282941347016    0.45900016816661
O          -0.18372774399716    2.16908889593073   -0.65746599452498
O           0.89689715054063    3.18397173454767    1.26666904653254
H           1.46938554554557    2.92908976193238    1.98654816324217
O           0.06501898697216   -2.61820823609584    0.90436482354713
H           0.69919898018531   -2.22222268349560    0.25655271391189
H          -0.10789200797268   -3.51212845739513    0.60536381024953
O          -0.89590795835758   -0.01188645821981   -1.94132450704514
H          -0.61171510688966    0.86001855545777   -1.58796091268664
H          -1.45020375455313    0.17003427114056   -2.70268709523879
O           1.42648380396626   -1.30799047411816   -0.95364296688239
H           1.71316000669109   -0.51977446017956   -0.46192939364237
H           0.72468037070143   -1.00010121230609   -1.54258447584904
O          -1.66363469069090   -0.67189492179313    0.57979260975717
H          -1.52962931911391   -0.53695017843529   -0.38044422231014
H          -1.09458086666720   -1.45095486245210    0.82366600879551
H          -1.05524408639012    0.41922579131185    1.18828887822727
