    19
        -40.91990217
S          -1.37518713404897   -0.59253037328939    0.20099310405605
O          -0.68044993129023    0.24476870982414    1.16639622796991
O          -0.69506616886911   -0.50683249741380   -1.11178729201434
O          -1.55703808058982   -1.94699167917239    0.63299895531351
O          -2.79480459792380    0.05898530976036   -0.01911406100060
H          -2.64256617431657    1.00173513394399   -0.02340626601961
O           0.91555569921971   -2.07531260018870    1.53126105763546
H          -0.01310390112957   -2.23545018501017    1.24549510697165
H           0.84541146738206   -1.46301950907309    2.26979303653566
O           1.45714275062366    1.53310202606092    0.39587170436791
H           1.04658591029431    2.01775766179291   -0.34670343173702
H           0.67889971593388    1.21814348183407    0.91234879117462
O          -0.29504731820102    2.05958960016377   -1.59362474740070
H          -0.20856196202593    2.24105307667306   -2.53091517931055
H          -0.51915251278454    1.10773905257599   -1.51376412029287
O           1.71289872206478   -0.77299233143187   -0.49920914146498
H           0.76750002970768   -0.75629017403226   -0.91779721215060
H           1.78827967680109    0.23787977107031   -0.12709406938862
H           1.56870378919444   -1.37133447420067    0.32825753667455
