    19
        -40.92079115
S          -0.84867961656074    0.31503796947477   -1.17847298538601
O           0.28781392443136    1.07918733048563   -0.68289773729144
O          -0.52831554460356   -0.59644883536569   -2.24654563125939
O          -1.56450030928396   -0.33623647725618   -0.07970069892455
O          -1.84497168801766    1.39497943908354   -1.76681503131693
H          -2.50916652994927    0.86837442754528   -2.20061826297064
O          -0.06815800065855    2.25940499570434    1.63253622129172
H           0.73226729839775    2.74208061136114    1.84860057895258
H           0.00776234924290    1.99958354415882    0.68410817274877
O           1.73589500514031   -0.66249443938807    0.72275053229892
H           1.55663498338485   -1.48025917939826    0.20174271421969
H           1.48024425529675    0.06168461020838    0.11610062004142
O           0.85527552023455   -2.46376860774076   -0.98789812837165
H           0.27949959342013   -1.84709360955042   -1.48987160752910
H           1.36920793500863   -2.94134005953114   -1.64187574060919
O          -0.32569171770878   -0.25100568596638    2.06153841980558
H          -0.95872587224249   -0.37148139989825    1.22729784297999
H           0.61434200266615   -0.52968121519170    1.64148284158065
H          -0.27073357812151    0.75947657158081    2.13853787975374
