    19
        -40.92139829
S           0.37815037344534    1.15055127493128    0.03165651886224
O           0.77152565972456    0.86431043901279    1.40904234295978
O           1.07808901624320    0.29346361538023   -0.92040080257051
O          -1.06799932418641    1.02927163296713   -0.14492749021200
O           0.77950705178620    2.62762064513030   -0.24512963968840
H           0.49543089494820    2.75812473901756   -1.17298486611988
O          -0.26290477111802    1.99508468152826   -2.58069898576601
H           0.34937039484323    1.24885112041383   -2.52657189859968
H          -1.03271450488362    1.72217583644241   -2.06464009194228
O           1.45873350974440   -2.16359072665322   -0.17173176357329
H           0.95536732433353   -2.68867761529084   -0.79793382823515
H           1.44678184782494   -1.23158295407031   -0.51623305284750
O          -1.98223251329186   -1.11279358671861    0.97250734406059
H          -1.70566524703176   -0.29085684826707    0.47898061713459
H          -2.70540759703412   -0.84457457516831    1.54348553066177
O           0.30973815760302   -1.49236568369117    1.97318428528186
H           0.58069294054018   -0.46840422797602    1.87301370220668
H          -0.67658088198843   -1.47317102273209    1.67031221697371
H           0.83011767850803   -1.92343676419950    1.18906985153931
