    19
        -40.91547174
S          -0.60215007479350    0.24819940287561    1.14312517135376
O           0.58306394944873    1.03114744655486    1.39384590004717
O          -0.60852956282866   -1.10519885141319    1.57533577473402
O          -1.82388142929258    0.98558502655428    1.74750595837421
O          -0.86162135423617    0.31373680015787   -0.38204162859304
H          -1.05317876888860   -0.66653496571666   -0.70795117861227
O           1.99158898120981    0.15570471015853   -0.76093784352728
H           1.71407635968628    0.43728664363358    0.12618478340845
H           1.38682564398171    0.59038043775732   -1.36798471450317
O          -1.13466547229464   -2.11090562199747   -0.88459695642382
H          -1.16884405417928   -2.31779707788860    0.06057376249896
H          -0.21769973597217   -2.35403067542175   -1.16141990482045
O           1.45250587506700   -2.42484278963603   -1.36478320306091
H           1.92489554160188   -2.63371079940661   -2.17223653251469
H           1.77292223313459   -1.54690690538965   -1.06970886026067
O          -0.81093817663377    3.27637102323256    1.00706321311107
H          -0.01085694416352    2.75416395948934    1.19105007827676
H          -0.84388866672232    3.41889936686725    0.05806791452656
H          -1.68962433409371    1.94845286955100    1.56890828595643
