    19
        -40.92453843
S           0.46076011094266    0.43390304409521    1.38635485264836
O           1.24744292087157   -0.73851815441457    1.02135359394398
O           0.72114461250025    1.53813391190481    0.46911556586060
O          -0.95076426689242    0.13769723478963    1.51239500520186
O           0.95032143138311    0.89613666445020    2.81517384506243
H           1.87735209302659    1.08869899090816    2.70760442479754
O          -1.78590387909150    1.29938798984877   -0.65516843295660
H          -1.66873356563989    0.90696871415261    0.24464161260790
H          -1.12946880229813    2.00578402279999   -0.67978454899400
O           1.57583486636335    0.16369444886429   -1.55526885033499
H           2.01283352647173   -0.53845869138427   -1.05914174923815
H           1.34799457506902    0.83225463163423   -0.86000706332663
O          -0.78504514715436   -0.63465654015127   -1.92469000528926
H           0.21484326301205   -0.32953582439688   -1.93179014977059
H          -1.30077280598487    0.17918158813639   -1.51589544120438
O          -0.69940822867711   -2.17467351783017    0.06864525914718
H          -0.82108946580569   -1.37581429559307   -1.18592125406595
H           0.12574263200272   -1.80134533987498    0.46804679911001
H          -1.39308387008635   -1.88883889794425    0.67433653685085
