    19
        -40.91547179
S           0.10929765587102   -0.43732515529116   -1.23707207333106
O           1.50364920048640   -0.69737897742111   -1.15424851314705
O          -0.30904835470042    0.90521633565553   -1.55846604259022
O          -0.53609156978568   -1.41665212831911   -2.24997353483495
O          -0.57407895707275   -0.80484109989675    0.10297979616469
H           0.16175095807198   -1.22736407657098    0.72258485384280
O          -0.10089704269468    1.90595205791482    0.96076603894239
H          -0.82674505993313    1.35699636196719    1.26888638345978
H          -0.06491351956098    1.77115048027774   -0.00042589425501
O           1.92847465396232    0.78146387401560    2.34994058483008
H           1.29482196629964    1.30540079115861    1.81659172253962
H           1.88905991644411    1.12720575790020    3.24307918925071
O           1.39459243071464   -1.62904024323339    1.38774215964746
H           1.66319206217884   -0.81133047832510    1.87349146405786
H           1.93713974819944   -1.62776990915899    0.58594477553267
O          -2.73183461162163   -0.00261075238116   -2.22212683222705
H          -1.45737119453903   -1.09446331358106   -2.40659227683332
H          -3.22772567007143   -0.08440031582289   -1.40400572407672
H          -2.05327262225012    0.67979080110092   -2.07909605701656
