    19
        -40.90951433
S           1.12413602482160   -1.29404224271644    0.42601308914357
O          -0.13738606934890   -1.67180656358921   -0.34526398756027
O           2.26153125659349   -1.37616874302272   -0.43244314806325
O           0.94227511918953   -0.07343928886016    1.15230253296230
O           1.20857113257179   -2.43519595692108    1.50389247083792
H           1.50729362641480   -3.23180791947813    1.06908936769472
O           0.43356667004682    1.55768960798184   -1.06560826759961
H          -0.51539263201296    1.74301576730811   -0.89913259928367
H           0.77483553122103    1.20513776192083   -0.23328645428298
O          -2.11993525339741    1.84001293421621   -0.24288578272805
H          -2.56401105787357    2.66470565583232   -0.04046008208809
H          -2.02769822300936    1.35410562583376    0.60018028330818
O          -1.46739373805730    0.66274112189161    2.12917072736994
H          -1.27264215170241    1.16997416699008    2.91963927542170
H          -0.61419088162976    0.30926805071426    1.81960981630569
O           0.53073797859708   -0.61199040830219   -2.48456078079067
H           0.00504574664190   -1.29095794396030   -1.32031694263411
H           0.46581810952818    0.32371840800533   -2.13404353789988
H           1.46483882141054   -0.84496001380089   -2.42189596013727
