    19
        -40.92079084
S           0.75312395535089   -0.11929580473577    1.27490054653512
O          -0.08814826047769    0.30269260596552    2.36502279294016
O           0.19788798862166   -1.20113808662922    0.47367750805256
O           1.17881134840009    0.99724453881017    0.42867539909082
O           2.07595049533228   -0.71441736814196    1.90823402409113
H           2.33967822418878   -0.04720281138362    2.53416789543223
O          -2.05656765701536    1.52950027033531    1.09690401907225
H          -2.80916590150615    1.56974718467152    1.69007332021117
H          -1.31360002774255    1.16171312081365    1.62267484401116
O           1.34958825163790   -1.58774941604501   -1.85075476165842
H           1.04739990401824   -1.59037695278821   -0.91178393262556
H           0.91850252376827   -2.33020056504949   -2.27878460469973
O          -1.74341416684829   -0.07851795180654   -0.96871536116775
H          -1.23880262147052   -0.71032970227975   -0.41750082596221
H          -2.04740771330456    0.60352881419990   -0.32502963244993
O           0.39671488280324    0.78710005175666   -1.90985473776512
H          -0.60072473493694    0.51053376111607   -1.65538383047900
H           0.78897739252671    1.01319939563909   -0.95744922618495
H           0.85119610758186   -0.09603108412940   -2.11907343567860
