    19
        -40.91359123
S           0.75632641808857   -1.73060600533411    0.59232626762122
O           0.21692113912151   -2.63374212911543   -0.37533161591299
O           1.82555648999470   -0.84467026381575   -0.01321736289411
O          -0.21708956318826   -0.94983615968154    1.30877504119259
O           1.56851857077166   -2.55190356824852    1.65661455114138
H           2.08752980569805   -3.19074043293839    1.17228102767863
O          -1.37556991719835    1.54815109196639    1.31342434056970
H          -2.08445246916438    1.25640762790520    0.73332561273067
H          -0.90915947699433    0.74087004293545    1.57966790265039
O          -1.62820092241607   -0.57826675251322   -0.96858276066958
H          -1.29930709058927   -0.77536716803025   -0.07516964588253
H          -1.62160934871754   -1.42578123878566   -1.42234139066391
O           0.39496407558951    2.83011499344397   -0.23441270196509
H          -0.21805984099983    2.45898379641147    0.43987706149677
H          -0.01079980604658    3.63248437782393   -0.56594163869365
O           0.68272975104562    0.61735895670501   -1.62872516700703
H           1.39132008095823   -0.18159071798952   -0.77119643979148
H          -0.23656738548962    0.27120482785966   -1.55458998199238
H           0.67694949953777    1.50692873141333   -1.18678309962495
