    19
        -40.91547161
S           0.67383782919160    0.05735051793033    1.12721089262295
O           1.74573991390732    0.81950892657193    0.58982905179500
O           0.71838241483896   -1.37562272699625    0.96785563459520
O           0.51448703591090    0.38673921545424    2.63301560398797
O          -0.66648302412283    0.52938231066036    0.51229007442259
H          -0.45469525476711    1.35628264500504   -0.10014124250727
O           0.14998739656293    2.36100656917669   -0.96582362263543
H           0.24988542480226    1.88377305682896   -1.82538198177107
H           1.02714781137536    2.31863491375297   -0.55837311653567
O          -0.27023855762537   -1.43431229082283   -1.56370499001676
H          -1.13343111901208   -1.13531643441855   -1.26630703161596
H           0.24434812260317   -1.58548060973863   -0.75393752356467
O           0.48171396325372    0.71797916062441   -3.01819645968704
H           0.32939470381283   -0.13490010678613   -2.56005177183599
H           0.03106088689463    0.66177036701454   -3.86228861285409
O          -1.08878091092072   -1.65582910283134    2.91451196800292
H          -0.48902572294271   -1.96720235789216    2.21449070527858
H          -0.11339396117543   -0.28070007378722    3.00383448537351
H          -1.94993696261224   -1.52306399979205    2.51116793692114
