    19
        -40.91893349
S           0.71087382671622    0.04495768259728    0.80212849766795
O          -0.25349352831391   -0.34511277041629    1.79761186101705
O           0.77499023480809    1.42232317715739    0.44864648810606
O           2.11950478720051   -0.42538470029516    1.24710635326067
O           0.43178273227645   -0.81374536534509   -0.45028010074710
H           0.46577510212361   -0.23503774601581   -1.32325069203222
O          -1.16796157866893    2.33991269280285   -1.27051916863290
H          -1.81987003511141    1.73716242121416   -0.86875850665019
H          -0.52348353762963    2.49679492572174   -0.56658043722919
O           0.47231195097330    0.70419627324125   -2.43769522969375
H          -0.22757747299598    1.36394931090836   -2.13981306053663
H           1.30499931619089    1.18209202123172   -2.40867636943431
O          -2.30312639277080    0.26548160754143    0.09598400417104
H          -2.33427192487746   -0.55157114449201   -0.40605590837842
H          -1.72625513197437    0.10154573217818    0.85728022228865
O           1.02283639752243   -2.70310501675873    1.87645630041926
H           1.99490017521613   -1.35510947446708    1.56029747367007
H           0.31025366053903   -2.08901160017939    2.11972407312405
H           0.74781141875136   -3.14033801667836    1.06639420962211
