    19
        -40.91790598
S          -0.59376496119796    0.44659640163381   -0.70848511400959
O          -0.01241817963362   -0.86870272606276   -0.62321764259096
O          -1.27638534814599    0.81501234856363    0.59568767621536
O           0.31836025145718    1.48117990307524   -1.10330469114160
O          -1.79245796513151    0.39995137205255   -1.70677459477489
H          -1.38253711620264    0.19198407022833   -2.57233973262354
O           1.52155627062769    1.46692599612175    1.34766148370076
H           1.25928614993993    1.59915804674880    0.42345916820986
H           0.93477393891374    2.01536588129515    1.87272136442921
O           1.31908276197429   -1.22565951432193    1.74004074103538
H           1.12463473365736   -1.35644233035106    0.79966042679787
H           1.60765587140959   -0.29610779375393    1.79888537165487
O           0.17917351408141   -0.17058601235825   -3.34516205405609
H           0.47930629972121   -0.88246390078305   -2.76924636874184
H           0.66166994300500    0.61713768875876   -3.06898439194711
O          -1.22901595210862   -1.12525833135544    2.16193373474531
H          -1.33080056479570    0.01147103759152    1.28259716102891
H          -1.56176569620552   -1.89408646462186    1.69184631412907
H          -0.22635397117911   -1.22547567245816    2.18302113796858
