    19
        -40.92003355
S          -0.82979845913599    0.12868234373657   -0.26306841531800
O          -2.03896454102571   -0.75386472583243    0.05565966533789
O          -0.19951910566255    0.54863581660283    0.96595644685534
O           0.07457469296749   -0.55082382343758   -1.15596185905375
O          -1.48630049141449    1.31865968272949   -0.96617096713785
H          -0.78872496178908    2.01824077092998   -1.22604845126863
O           0.38426861684468    2.98347960504265   -1.41277870200834
H           0.29892594593551    3.73956649603832   -0.82688842442696
H           1.14872522222825    2.44705496447151   -1.07504063589805
O           0.67297471767931   -2.73757802660128    0.27161269400149
H           0.56390676391863   -1.97607735212241   -0.33019829061135
H           0.50441317332564   -3.52343678053948   -0.25224543988263
O           2.05762441343343    1.28354386056854   -0.30526922123287
H           1.41984335598521    1.04191323568260    0.38891612714315
H           2.06774452374400    0.53001234866590   -0.90414018877397
O          -1.05228075160906   -1.84923527986445    2.10593449775301
H          -0.61612073406781   -1.04058446870749    2.40058331390561
H          -1.81283242312572   -1.25714308363058    0.92130538999387
H          -0.36845995819327   -2.35104557364389    1.60784247068654
