    19
        -40.91039666
S          -0.23746423987399    1.26199395895380   -1.44524924166268
O          -1.22490715738773    0.21439605818185   -1.39065338093991
O          -0.35130156414282    2.25533681914254   -0.39651249853703
O           1.13315150432538    0.70862969980160   -1.49379584217589
O          -0.42999644305926    2.01479159082992   -2.81627201124517
H           0.13476191417357    2.77751871743392   -2.73308229672755
O          -0.59869540139974   -1.70976678001397    2.37431142162511
H          -0.99295364335857   -2.04607866287488    1.56409238081679
H          -0.75172205113520   -0.76009824757701    2.38407091176724
O          -0.58617931481414   -2.12156977577248   -0.46206309055940
H          -0.94942362954531   -1.27736745783446   -0.83457628256314
H          -0.50240797771221   -2.73006048487236   -1.19816756908288
O           0.19695775768826    0.98016946527249    1.78361029221067
H           0.63684726631354    1.58291869705995    2.38628602208503
H          -0.08979225954254    1.52107268026989    1.00136994954367
O           1.43825652100453   -0.80268872283331    0.40796529854792
H           1.41076898999973   -0.14629867588334   -0.46595066187465
H           1.03519002738804   -0.22211653630581    1.13723490133553
H           0.72890973114322   -1.50078235299224    0.19738169742051
