    19
        -40.91893388
S          -0.05192552042818   -1.16624837740531   -1.28735992480521
O           0.80036640332887   -1.40589571191119   -0.11257108863875
O          -1.32564336126859   -1.83076853673370   -1.17772382533821
O          -0.11928394831570    0.24718517225469   -1.60229959394279
O           0.70662479302350   -1.84627122024384   -2.50494241424540
H           0.40706628382947   -2.74961474886655   -2.46741782815225
O          -2.16309525856801    0.20617717991443    0.27752593547735
H          -2.01575714397736   -0.64641579684079   -0.17980296654467
H          -1.90444773186771    0.86805534865323   -0.37082869342894
O           1.29893482348095    2.12043743312078   -0.51132558664924
H           2.06445447473830    2.28352571988530   -1.06534526157523
H           0.71935356026412    1.49182504794528   -1.01457544467270
O          -0.80549469180176    0.49661268712602    2.50354731335652
H          -1.39301815299530    0.43824206191905    1.70293549202641
H          -0.98963147422249   -0.28609688249339    3.02657755440755
O           1.45916944476250    0.43500914339589    1.37987741531547
H           1.24982595552055   -0.40311247140615    0.74707158815836
H           1.47489760782243    1.22274580763864    0.72416588503999
H           0.58760394670153    0.52460815405579    1.93249145421880
