    19
        -40.91791107
S           0.16863779512791   -0.54555319255824    0.94000988567172
O          -1.12956357110972   -0.61223880776556    0.32056306915200
O           0.22154445100400    0.04180791481096    2.23969421809182
O           0.83376228916687   -1.91626845620582    0.94033268039586
O           1.08626798315460    0.27933378065932   -0.02924929313400
H           0.50570342358647    1.08857913195773   -0.27258334801902
O           0.98397314764570   -0.96855822031894   -2.51076848188247
H           1.27126469248432   -0.51158866439411   -1.70600835352441
H           0.67569474478114   -0.29389951880333   -3.11896324854570
O          -0.59087229763992    2.60236349413404    2.15814377155234
H           0.04842893372487    3.14271893959265    2.62643184362545
H          -0.36685212557125    1.67354380215235    2.36060003090725
O          -0.68187172598985    2.03084629358242   -0.42826233199197
H          -0.71195867456424    2.46664525010209    0.45527327549214
H          -1.37420119361184    1.35735156763768   -0.40021768659094
O          -0.37586658721000   -2.81262346065538   -1.08203150816120
H           0.10885547097087   -2.35371824472348   -1.79709317941686
H           0.43901523960589   -2.43803853651536    0.14605603342402
H          -1.11196199559639   -2.23070305279524   -0.84192737714320
