    19
        -40.91979960
S           0.21654771280595   -0.02263660321161   -1.08243532680958
O          -0.76722070890691   -0.83524796285350   -0.40083837137582
O           0.85192152714967    0.91396088284683   -0.01844919277146
O           1.22243943239074   -0.75922459432934   -1.77632202095546
O          -0.45515162971136    0.95349248561537   -2.03818553545845
H          -1.07028109443271    1.58835131265627   -1.52371249226139
O          -2.04002059412444    2.40216311682991   -0.67636748566647
H          -2.06974158587414    1.91103647759751    0.18345871760394
H          -2.92441852534137    2.35764122954803   -1.04804867662866
O           2.71571563977007   -2.09555760049393    0.02252901902026
H           2.90848402239059   -2.98352218350612   -0.28385477495609
H           2.30560093703149   -1.62762110368077   -0.72909324772311
O          -1.96907053967324    0.74190704666750    1.36666845357899
H          -1.29985693508052    0.85043304572632    2.04642075339084
H          -1.64749433117505    0.03502875741009    0.77076512774470
O           1.00069255344512   -0.95083097190977    1.72052181071595
H           0.22532620284723   -1.37522644779284    1.32998536481373
H           1.76988231209441   -1.43334696579855    1.35351645633671
H           1.02664561466317    0.32920007901072    0.78344141142057
