    19
        -40.91463218
S           1.34584077739515    1.01927610487910   -0.48223182481491
O           0.06787782366817    1.62926456530930   -0.29717194674618
O           2.31147450130862    1.11827924403324    0.56460079429886
O           1.16619183797233   -0.44616196618285   -0.87031568126333
O           1.98045481259498    1.66914858909255   -1.77473566319627
H           2.92942872162305    1.57846338874221   -1.71488346150461
O          -1.38129273409561    0.32228365621175    1.68338870350731
H          -1.03645733741723    1.01579651168287    1.10395636738987
H          -0.59276696226936   -0.13577748499257    2.02638529239659
O           1.07682604900417   -0.84018370812479    1.99013846917101
H           1.25043824199017   -1.54062794549934    1.35715859497211
H           1.65174725354765   -0.10410030262406    1.73221338185038
O          -2.50399597404018   -1.34952515814479   -0.01714305539185
H          -2.21306290789672   -0.71807608306926    0.69109471839024
H          -2.35176926869135   -2.23144619560384    0.32500892112866
O          -1.06230280471767   -0.31874193219820   -1.91766653246995
H           0.22513074662510   -0.49417109971022   -1.38348087202741
H          -1.67932797309107   -0.79455483807856   -1.28619120404917
H          -1.18443481317562    0.62085465406369   -1.73012497107443
