    19
        -40.91285561
S           0.86725247349585    1.46533601868070   -0.17083749594506
O           1.69411272245925    0.54037217996968    0.61523514206957
O           0.20868974350851    0.75757168866852   -1.26313610872306
O          -0.00019038216653    2.27614528581969    0.63685927982692
O           1.88313823515006    2.45295639337973   -0.88680352312079
H           2.11412402400624    3.10103933799085   -0.22723476741715
O           1.60806637915732   -1.29934191283864   -0.96529445037202
H           1.82700224478765   -0.62632032195608   -0.15290907866539
H           1.03686702873813   -0.62814935700963   -1.45282069644299
O          -1.81592782978395   -0.77133922676811   -0.25519956633651
H          -1.95395981192226   -0.33647569548785    0.61265354869342
H          -1.26357386664191   -0.14759570128868   -0.75612188897386
O          -1.81326685042659    0.78998377738374    1.92438098011969
H          -1.11214315178372    1.36466515813958    1.55706655834431
H          -2.54845431621530    1.36889063943981    2.13489941577086
O          -0.20868307986962   -2.77654908680992   -0.07029008834446
H           0.92676450797567   -2.00787272928099   -0.57476531365792
H          -0.91612066267437   -2.05681555093317   -0.05367122002052
H          -0.53369739779233   -3.46650090709193   -0.65201072680741
