    19
        -40.91373458
S          -0.55933557297516   -0.13393253461796   -1.56618909650760
O          -0.88068507139158   -1.21944917318930   -0.67855795841153
O          -1.67845646904089    0.89589919362405   -1.58720990018029
O           0.70741544654248    0.48860181066001   -1.36400161426503
O          -0.59585374832111   -0.69965016113396   -3.03062931796563
H          -1.40670295725096   -1.19321945138467   -3.14316475817153
O          -0.92760891834153    0.33821090545964    1.63508153983600
H          -1.06609974704930   -0.35280369632242    0.97363017519846
H          -0.05374940346780    0.15039761788016    2.04545851629585
O           1.74950503265010   -1.61542785887740    0.06372683683284
H           0.82243519889286   -1.85452038105900   -0.07050572723644
H           1.87629586397784   -0.84188715419573   -0.50059521160037
O           1.52785180330866   -0.38118330470851    2.44650439463494
H           1.75515169751020   -0.86322911393312    1.62100637362208
H           1.64241563915342   -1.00302064752520    3.16665805044902
O          -0.78403859475844    2.43355386877554    0.13020798036405
H          -1.40007125457121    1.65850331907483   -0.89721454226755
H          -0.87673844856754    1.75991780737402    0.86940703406666
H           0.14826950369729    2.43323896410046   -0.11361278469182
