    19
        -40.92174064
S           0.35552450637546   -0.70109831365444   -0.43218604078211
O           0.91386083084570    0.48370656783862   -1.01477606350198
O          -1.00573306295335   -0.98582193379714   -0.83414927051210
O           1.24316898434010   -1.90738870370275   -0.80786787109485
O           0.45351875788552   -0.64941289060099    1.08146040332804
H           0.09325386210048    0.28913883250800    1.49591552162014
O          -1.76326435470467    1.57951053682046   -0.41896637744595
H          -1.19660172448465    2.02787725558680   -1.05219600220847
H          -1.71328597752764    0.63519302612354   -0.64100839529166
O           1.68357137553043    2.59726381022272    0.46321472109699
H           1.49282510235869    1.90787147392454   -0.20085903034011
H           2.60578415256343    2.49477657240801    0.70406132987450
O          -0.35040263098832    1.56386619792581    1.82979757870274
H           0.40091788629302    2.12397194351236    1.52622268833704
H          -1.05649540554643    1.69929560307204    1.15463277052998
O          -0.70399443439004   -3.59054238399890   -0.46825169271295
H          -0.97078242923485   -4.11518087813873   -1.22736898756523
H           0.69403753554322   -2.71346732959163   -0.62625555638151
H          -1.17590299401005   -2.73955937641547   -0.53141971564052
