    19
        -40.92071438
S          -1.41537037528310   -0.31283309713952    0.30983905256947
O          -2.29932920751615   -0.52807992396956   -0.81259918041429
O          -0.37914332461460   -1.31052611919873    0.44396036655080
O          -0.82943622055456    1.04216503073573    0.28983846323272
O          -2.30783278207405   -0.37315424998874    1.61224299567261
H          -3.15751659554823   -0.05371814771991    1.32209440426076
O          -0.31698988540415   -1.14948567110863   -2.40526598482912
H          -0.02438960868737   -1.97135901470940   -2.00040660795289
H          -1.17703902790334   -0.94170605939536   -1.96905980934824
O           1.17160034280119    1.39250713262168    2.04185514986353
H           0.34265788796824    1.30601358445305    1.53034961780700
H           1.31481488891434    2.33059285338749    2.17534384321472
O           2.12735948565689   -0.51994253729121    0.45219642352718
H           2.08639067600538    0.13993567808894    1.17643278688011
H           1.30827961758775   -1.05212132462160    0.57830887952755
O           1.03297303853763    0.74027203059540   -1.37571245064719
H           0.26485195010513    1.04563735280284   -0.76705577379835
H           1.66848213273961    0.20866975822724   -0.65460411318413
H           0.58963700727268    0.00713270422840   -1.94775808294921
