    19
        -40.91820974
S           1.65328044216918    1.08940166982045   -0.15057419028191
O           1.26482380571526    0.96929296848695    1.26499247332760
O           1.79466485915924   -0.22814759732718   -0.75267413779805
O           0.78653052654693    1.96835782898603   -0.89206821394638
O           3.09143785611394    1.73724845486220   -0.13346196733286
H           3.59107598963821    1.11568661918165    0.38713399739806
O          -1.62921267811287    1.00027005233656   -0.81123774709753
H          -0.81821257044092    1.54231873072939   -0.96605839709696
H          -1.42709158522346    0.13979489783842   -1.21773450395186
O          -1.25166373585094   -2.04931312432633    1.13578824346350
H          -2.13035412892077   -2.42684948145692    1.06424294853714
H          -0.89748706934214   -1.96686615255651    0.22242338198592
O          -0.40887089887902   -1.40615824410078   -1.32229775919823
H           0.46641845949850   -0.96639158374345   -1.11386365476214
H          -0.23130353633511   -1.98554188736708   -2.06513369052375
O          -1.12719809646851    0.48640180243483    1.58905363954083
H          -1.47234283217673    0.77459060631687    0.63331668049204
H          -1.17092016461838   -0.52587633594471    1.58468114387125
H          -0.08357463433718    0.73178075875647    1.54347174578284
