    19
        -40.92079115
S          -0.82093818235623    0.92283730302814    0.82620828519313
O          -0.48015497883886    1.44613985794956   -0.49812701780517
O          -0.87271633999997   -0.53267608067916    0.81666132183992
O           0.00252530025096    1.47865534798375    1.86893320814392
O          -2.30836414608204    1.38511463508243    1.10718279772661
H          -2.22531107494304    2.32411724291266    1.24088369940431
O          -1.80249512907025   -1.61467555245192   -1.38423482138617
H          -1.64872861497930   -1.22594576729006   -0.49076982735472
H          -1.80729051235047   -2.56724075347146   -1.27059607366890
O           2.43782380046934    0.86637273244789    1.04526692032221
H           1.56582805448021    1.19339535719192    1.35620753235757
H           3.02396672197429    0.90753224765103    1.80329409072941
O           0.29514510071707   -0.31218794977292   -2.05879144858956
H          -0.54429389580466   -0.88225559846722   -2.03774121093368
H          -0.00435843191205    0.53621408124376   -1.51022229871158
O           1.50106035422136   -1.30556788765313   -0.11714532104406
H           0.94605515289121   -0.78450794813938   -1.35769039858166
H           2.06254809237778   -0.58185270872850    0.24806083181835
H           0.67969871894731   -1.25346856880251    0.41261973054013
