    19
        -40.91893413
S           1.18067318240340   -0.94045124538738    0.85763210754894
O           1.89129814892266   -1.69597712874155   -0.14261063680136
O           1.33675183827051    0.49817241145963    0.76856470639358
O          -0.23993939171343   -1.31435656538341    0.92876252762891
O           1.79847094178676   -1.35835385754405    2.25906774255983
H           2.03832234422178   -2.27014161742907    2.12412008134800
O          -1.59938950847623    0.03372794842687   -2.14363090778294
H          -1.84256022513517   -0.83066796006736   -2.48087934744527
H          -0.60504775713247    0.06702305515564   -2.15919017075243
O           1.01577106096536    0.01887983678448   -1.94788180594263
H           1.32632478497960    0.79322466063598   -1.46902483796416
H           1.37818219850709   -0.73638817274351   -1.44173600490026
O          -0.55170987050943    2.24957531477482    1.04171826634391
H          -0.56452893718494    2.54187847266714    1.95493577897173
H           0.25345034730112    1.67802799531522    0.94306674003833
O          -2.00669172800261    0.29288816876027    0.33853868515163
H          -1.95174573260878    0.23758035074040   -0.69453813418746
H          -1.29406812116841   -0.44119408519824    0.65225676743995
H          -1.56356358549522    1.17655241779100    0.61082846232337
