    19
        -40.91912338
S           0.59546642953688   -1.18496865466499    0.16399703226519
O           1.59321325715319   -2.15711226970528    0.47811293673430
O           0.59163525659178   -0.94564581886164   -1.34107853498185
O          -0.73395893444470   -1.41758820276292    0.64152517252451
O           1.04074214072281    0.19968428682859    0.76625509424404
H           2.02837171129351    0.21402599161871    0.65567345241030
O           3.53324050049523   -0.38144833331336    0.44191369862986
H           3.11697245363308   -1.25877615533784    0.33716824978669
H           4.10476424273739   -0.43391050921001    1.21218539450730
O          -0.91060853361193    2.20979207994904    0.26615202418403
H          -0.18523043615166    1.71006468130814    0.66001088689268
H          -1.72719876225311    1.78767366900055    0.56852804499235
O          -2.84575812820965    0.14857247519855    0.30067058347026
H          -2.11600671945912   -0.47333080789540    0.50073372834114
H          -3.63805697697330   -0.23685404640297    0.67714517831346
O          -1.22698213489383    0.69747915913253   -1.88882530531404
H          -2.04608869469429    0.34184878368639   -1.51201424374694
H          -1.01558011973317    1.46125853359237   -1.29994477859605
H          -0.15893656151736   -0.28076487167522   -1.62820860441050
