    19
        -40.92246929
S           0.66708054919277    0.13472495351006   -0.82603461117152
O          -0.24303052389184    1.17538088939733   -0.17901606993932
O           1.80574573267279   -0.09308848761740    0.03296452797607
O          -0.07543054760950   -1.03819888567521   -1.17621579430248
O           1.13075989359339    0.84680207674811   -2.11549793191755
H           1.68005106774373    1.60191384083073   -1.78660941810660
O           2.38865271662771    2.47392766506880   -0.52432703349836
H           1.70055192530369    2.94742167171697   -0.04835460514816
H           2.52989818630615    1.64004778504877   -0.04719000054622
O           0.39627124331846   -1.64746831387381    1.73214884160070
H           0.19013447304146   -2.40946163113926    1.18496334596821
H           1.07997288203740   -1.15071778319004    1.25087809139606
O          -2.61899638399239   -1.48660924272721   -0.42960862545522
H          -1.71882331721244   -1.46720789204883   -0.80658949271378
H          -3.21216657933197   -1.20236364943805   -1.12699815619318
O          -1.63518253655620    0.03584747291125    1.50450172781212
H          -2.21716421455172   -0.50971070697425    0.92388087928110
H          -0.95357891724461   -0.59450294126242    1.84266564852868
H          -0.89474563954435    0.74326316869953    0.59443867643637
