    19
        -40.91376475
S           1.03824432062975   -0.41689589174484    0.55839265314694
O          -0.05392030486149   -0.47394014676843    1.52024600661243
O           0.94387424815096   -1.54864101240949   -0.37466571333149
O           1.13564476486334    0.84126467997029   -0.14125849616799
O           2.37538694574697   -0.61092874046610    1.35633190398087
H           2.21696915419286   -1.31471508094995    1.97953200959329
O          -2.28220562302485   -0.48679987183563    0.18468652119898
H          -2.89426471352659   -1.07762166657127    0.62865387293872
H          -1.48759532170184   -0.41571641786305    0.77532617263743
O           0.97900585531374    1.92679185040055    2.44208610867856
H           0.42682807098963    1.13802912583080    2.44643301147164
H           1.30646787319254    1.98790462567066    1.53982899458056
O          -0.10455718438866    1.16408044600445   -2.41589479076970
H           0.49563150103594    1.14210939171746   -1.63099671337742
H          -0.70165356375063    1.90287444923077   -2.27599657951682
O          -0.96506721693730   -1.15043752417362   -1.87798320890297
H          -1.64316757896150   -0.93499941063843   -1.13830143520443
H          -0.68203911376500   -0.23435737839361   -2.26613188083779
H          -0.10358212317071   -1.43800142702108   -1.31028843674829
