    19
        -40.91463227
S          -0.05395352024156   -0.14238067853202   -1.74904793992942
O           1.21851776669090   -0.09108014693411   -0.90720951066328
O          -0.30903070810512   -1.49092819581379   -2.14185312051383
O          -1.09205739727527    0.59180612386903   -1.09895154867197
O           0.33125700769424    0.66522994865491   -3.05091089466131
H           0.72267775093558    0.05455782833038   -3.67226544787120
O          -1.61655795291355   -0.45196129434056    1.42377651989896
H          -1.14478449454979   -1.28271778860832    1.23284225429073
H          -1.73323367078691   -0.02606069593888    0.56316913562258
O           0.13913591400328    1.11330527557779    2.61312929072699
H           0.70824333678243    0.54147769010573    3.12992924838614
H          -0.60688981776504    0.54678504381170    2.28535581981670
O           0.03790469331223   -2.37858357922838    0.40420805641333
H          -0.19281056367413   -2.32635441729476   -0.53541349526192
H           0.96910310949412   -2.15156551169005    0.45683480655165
O           0.83361893480686    2.03306041688905    0.28409765061220
H           0.65546033158143    1.77375713656074    1.23646272437431
H           1.17128235954537    0.83677973857504   -0.37039420371589
H          -0.03788306954140    2.18487311596463   -0.10375934537967
