    19
        -40.91396380
S           1.19987954557033    1.08522332270143   -0.43585857502519
O           1.89238170533401    1.44768517071953    0.76059369752433
O           1.26877208112215   -0.36504172350449   -0.73044487943478
O          -0.18536687389069    1.52699787877401   -0.53277188008189
O           1.94992142982566    1.78919859966835   -1.64581759198450
H           2.81340502106944    2.02548792939954   -1.31842464086752
O           0.96658708258238   -0.87689635791092    1.92005117590289
H           1.19183986228580   -0.95368165329502    0.97980063642745
H           1.49236074728965   -0.12871782933123    2.22305473000576
O          -1.45044133252966    0.22583439897581    1.51650728815563
H          -1.12272319614201    0.92315161637524    0.92550654820791
H          -0.64665221057423   -0.19769969054791    1.88730538270774
O          -2.22868000830539   -1.59433284400960   -0.12284982267349
H          -1.82797393726040   -2.40396328134765    0.20241536231115
H          -2.07304882856823   -0.89288329572869    0.58984269353665
O          -0.88381173971593   -0.46255170552940   -1.89104466416943
H          -1.52157822318262   -1.01061529000357   -1.22077300480454
H          -0.93195377454314    0.49138149186819   -1.57060094914187
H           0.09708265963276   -0.62857675723244   -1.53649149659441
