    19
        -40.92070658
S           0.37692600670280   -0.14663453045295   -1.08032257467087
O           1.08901237213717   -0.61205786101559   -2.22531860183273
O          -1.02857095023893   -0.42019310850748   -1.00921732871048
O           1.08271652343433   -0.65647717384813    0.17200074401263
O           0.53573694518105    1.41538852296593   -0.97127123830147
H           1.50828098227567    1.54989962734620   -1.10177930771778
O           3.05488718375417    0.96719729595685   -1.36437917196467
H           3.41180573549578    0.51021258108376   -0.59789815621422
H           2.67388325963695    0.28078479746485   -1.93929316618223
O          -1.56969749067738    1.68299091805056    0.84287255946319
H          -2.25047005940901    1.19779513100557    0.36695717681677
H          -0.88172530815091    1.86759204029876    0.19068958577610
O          -2.16143264440979   -1.93898332256073    0.90869431159156
H          -1.89578480060741   -1.44494616632675    0.11093440719088
H          -2.08312279965643   -2.86973980577287    0.69435935432574
O          -0.40874745452642   -0.33820661804661    2.11885983477829
H           0.48103865914038   -0.53071680195146    1.06628234501101
H          -0.84710126937680    0.51278579143612    1.87597855503688
H          -1.08763488072254   -1.02669131711738    1.94185068160052
