    19
        -40.90997424
S           0.42891932562000   -1.26424243940892   -0.78150601085373
O           0.84654529849469   -0.98038523387225    0.65394380307425
O          -0.44326813989503   -2.39861260109777   -0.84366192394615
O          -0.04645554641997   -0.07179396864951   -1.41695157364566
O           1.79139316357508   -1.65058398910259   -1.44740694817298
H           2.01923597783326   -2.52566635592935   -1.14075707591464
O          -2.51337304519026   -0.82188344169441   -0.16153728467104
H          -1.96799919570840   -1.59405174447255   -0.38927638695939
H          -2.53321868986422   -0.27748730983127   -0.95279929015999
O           2.47211820355325    1.45317791972381    0.84700766585965
H           1.64743730673048    1.91804821627597    0.65983349135618
H           2.23622138654270    0.52663742104924    0.94123995982214
O          -0.16330669951466    2.21305292764842   -0.04710864979238
H          -0.22954977758359    3.01052722970853   -0.57478623957393
H          -0.08238532927923    1.46302698011383   -0.67033921707172
O          -0.98665611068728    0.30688951612609    1.67374572703484
H          -1.73404645501693   -0.06824177211440    1.14455558727658
H           0.06428521187474   -0.43222960356058    1.19658770190899
H          -0.80589690510949    1.19381824908683    1.30921666440517
