    19
        -40.91833220
S           0.13512998332083   -0.11150004769776    1.71636944689298
O           0.87563734406590   -1.17228894082327    1.01562883323706
O           0.99686009438094    0.97492604849483    2.11125930727501
O          -1.03857571260936    0.29276942972828    0.96765967667036
O          -0.40398964237901   -0.77745457686358    3.04852061231976
H           0.36927184671648   -0.81209451293607    3.60339029546858
O           0.56776691008197    2.25248122215582   -0.14775573751133
H          -0.38720346943009    2.26819036998206   -0.03573028590708
H           0.89534933014001    1.88812058979988    0.70207938282220
O           1.08188725188346    0.67672834510223   -2.17241205966350
H           0.88551631073731    1.31619691511050   -1.43192772819246
H           2.02616067984380    0.73548376963229   -2.32899944287417
O          -2.18161850947841   -1.12603919716354   -0.87500567454868
H          -2.65135818373271   -0.50478869333076   -1.43529146092460
H          -1.89165725636572   -0.61844148244803   -0.07442871866720
O           0.27752723231520   -1.58015154625365   -1.32981547683985
H          -0.74352579549421   -1.51224753741737   -1.28061223346611
H           0.61313440138186   -0.70364922603398   -1.75506377712468
H           0.57368719602720   -1.48624092466010   -0.29786494961774
