    19
        -40.92079095
S          -0.66908999301268    1.27902524349397    0.35096347552916
O          -0.57295943526073    1.49011438149170    1.77226010872656
O           0.61764563453506    1.43978645987962   -0.32915053833964
O          -1.30818066770281    0.02593746493104   -0.02613336812714
O          -1.61085546671491    2.41116598504315   -0.22938387011426
H          -1.23913627206609    3.21171439864979    0.12773199462109
O           0.49205952941534   -1.86439693342767    0.51423670078361
H          -0.35383758634878   -1.37865824580614    0.43453230233992
H           0.92509797647151   -1.45480580284201    1.29965482767356
O           1.26624945590634   -0.27515019288118    2.46939118215499
H           0.64277534142357    0.45283257024338    2.25699225772561
H           1.18078969150581   -0.43328649212401    3.41155068261541
O          -0.95650078692500   -0.70889616037313   -2.51910529653246
H          -1.26483753135053   -0.34957931510516   -1.65382474877878
H          -1.43410615469464   -1.52877029345101   -2.66048494756408
O           1.37308296691885   -0.62726280872763   -1.46203036781823
H           0.57886817532920   -0.72890138066097   -2.08585769866896
H           1.18714293256805    0.31403777859336   -1.02566345788746
H           1.14579217998193   -1.27490664691523   -0.64567923834485
