    19
        -40.90294243
S          -0.89718189651203    1.49455294760141   -1.77463280648573
O          -0.57150726287357    0.24949927874800   -2.38519983376722
O          -2.19115822302071    1.59700273384797   -1.16608545410422
O           0.19067305990140    1.92652735833735   -0.77491703142563
O          -0.77324963956640    2.63018169659686   -2.85324181947456
H          -1.17925732022513    3.41433660629707   -2.48738826059436
O           2.14510294536998   -1.89874812712270    0.52804483583153
H           1.81090309017678   -2.74962885357161    0.23871246227079
H           2.13494345068306   -1.90873201920912    1.50243825815992
O           1.44421084259702   -1.24268514840258    3.10114789672099
H           0.82052992383241   -0.68226913533144    2.61511938573965
H           1.95532476985422   -0.66034002893052    3.66518213384268
O          -1.90219772710271   -0.99750552443298   -0.36039284632362
H          -1.49662351174866   -1.06210962455754   -1.23624249090960
H          -2.44047659880681   -0.19509092872721   -0.41049999841483
O           0.25370627029520   -0.02068876640644    0.81692239938787
H          -0.57871776450508   -0.47030797437616    0.52576722667765
H           0.98890732695604   -0.60764498923213    0.52053996109057
H           0.28606825468953    1.18365051885606   -0.06527401816245
