    19
        -40.91893362
S          -0.53734281374538    0.91499919195816    0.12280321676800
O          -1.24130547335288    0.46418623612612   -1.02932509732625
O          -1.05870265775296    0.54389028317714    1.41263298426853
O           0.92690393955483    0.42789246556376    0.07659300569021
O          -0.40009557738397    2.45778420516849    0.05470909652362
H           0.00929805840157    2.72099944327928    0.91554262177818
O          -0.82504967689000   -2.15097259428796   -1.77774430159842
H          -0.74775359372396   -2.41419323316663   -0.84267410698978
H          -1.38005227391937   -1.35919040081091   -1.75672167785108
O          -0.45410422284982   -2.07822757611631    0.92800228847715
H           0.47041206757098   -2.07072862694255    1.18450254434571
H          -0.83160872026809   -1.23742922833594    1.22724245140942
O           0.62689880661986    2.35434689600109    2.44695030271901
H           1.48717564256961    1.92963731708675    2.39848268448172
H          -0.03400594276230    1.64420613125722    2.50355772387606
O           1.28577431753849   -0.68517146203931   -2.13477678056503
H           1.14808796409535   -0.02212344501185   -0.84298371299829
H           0.55508121717408   -1.37520991353727   -2.07660429185906
H           1.00038893914642   -0.06469571929269   -2.81018894110127
