    19
        -40.92453841
S          -0.46654740684705    1.19684690748316   -0.81993471039736
O           0.81952330339652    0.76749680089977   -1.35828942055829
O          -1.47032625159115    0.15113105712152   -0.98071749837396
O          -0.36718130906646    1.66606217617839    0.54617320006889
O          -0.94033035596875    2.43171247345717   -1.68327752816653
H          -1.01297936639681    2.09754501717500   -2.57261184135670
O           0.45751082548366   -1.79551432965876   -1.22378946881070
H          -0.48946348488340   -1.80230974567442   -1.40659769267555
H           0.72356447754839   -0.85925166874922   -1.41034282955387
O           1.90249841216765    0.56897513443964    1.17046850045797
H           2.30536323065257    0.60688507589578    0.29478048407409
H           1.09938575362157    1.13841092417656    1.07939552726068
O           0.66559874059774   -1.62441064227535    1.28127259125685
H           0.63215839228123   -1.84936819219505    0.26100150593603
H           1.27563163789051   -0.77581326103777    1.33974424659195
O          -1.61246022511250   -0.57100317518926    1.51344262665704
H          -0.29860506755217   -1.27906735750283    1.49841944370240
H          -1.48038951229484    0.29505440692010    1.91633459248254
H          -1.74295177391161   -0.36338160147727    0.55452830139724
