    19
        -40.91255743
S           0.01520539695089   -1.50049388787371    0.75443009908422
O          -1.45205652703781   -1.90701016453454    0.73151499645923
O           0.46325899997889   -1.27931961283125   -0.59557489291321
O           0.28986029194917   -0.45534552256640    1.68204523539664
O           0.71184763139861   -2.79620427908820    1.30009263761509
H           0.60634525403578   -3.49996260469247    0.66172057937112
O           2.31548020102342    0.63060162666337    0.02179584162206
H           2.09665755459145    0.58028180406149    0.95787094371721
H           1.79145192349633   -0.07162815699193   -0.39313582381557
O           0.81731378537788    2.70930750268356   -0.81705843290378
H           1.48897551269666    2.05464718907123   -0.52760638009968
H           0.96245668901208    2.85547416711714   -1.75252157583334
O          -1.25763387222765    1.48248055174279    0.38934594946305
H          -0.77252531180954    1.00051678264628    1.07164388008940
H          -0.59779886437605    2.05957449575147   -0.05059755668675
O          -2.17640252923083   -0.41043691161224   -1.10483924662143
H          -1.90466442952785   -1.33469660913411   -0.03802260989018
H          -1.97410719068546    0.43433435842278   -0.60128048027804
H          -1.42366452540572   -0.55212072887161   -1.68982317338870
