    19
        -40.91868607
S           0.43262352978667   -0.82484677031435    0.05062702533858
O           0.62364428617780    0.58995115545483   -0.17016564148679
O          -1.07916012634616   -1.12777725600062   -0.02407498457958
O           1.16351125915469   -1.67409073023183   -0.83629195813893
O           0.79384639074297   -1.19165871753941    1.49112704210129
H           0.25603792398620   -0.63509183736078    2.14886754723894
O           0.30816529328073   -1.24085557864051   -3.33786055876764
H           0.77803905340124   -1.42677179698951   -2.50143095692265
H           0.08485984655754   -2.09373788819275   -3.71583351053322
O          -0.42497666514619    0.33433454549232    3.13686220561359
H          -0.26038752032687    1.21082809818432    2.71411883801261
H           0.02022189003682    0.34225633815849    3.98746162481026
O           0.32919077566607    2.43479630577485    1.71159757066389
H           0.41487109497095    1.84954455501161    0.92994339388603
H           1.16460962332980    2.89935899899888    1.78898617343769
O          -1.43698218320259    0.32217884452967   -2.07460813444750
H          -1.41248349494773   -0.59506586641804   -0.82103544329214
H          -0.85299313075416    1.01950860704834   -1.75613405880777
H          -0.90263782648352   -0.19286102687962   -2.72215616423464
