    19
        -40.91789072
S          -0.96515986863723   -0.06081304628023   -0.11030898439950
O          -0.74725890339502    0.71949843782469   -1.27897302634114
O          -2.37729068317276    0.24692171853950    0.45063046457931
O          -0.84205180516453   -1.49358972430525   -0.25670060885066
O          -0.01126373018331    0.35706320013968    1.01979803825676
H           0.48526226314450    1.24746763489181    0.83579968779121
O           1.35239304792287    2.40435941331798    0.49980209164443
H           2.16654662482189    2.38221107577052    1.00837201943718
H           1.59547482608682    2.15945894454738   -0.44349313004498
O           1.82047746822266   -1.12455266675179   -0.73348799392699
H           2.17017963276653   -1.32428457715136    0.13729778846012
H           0.89240728846828   -1.40219955600245   -0.71987387630984
O           1.83527253878117    1.40244418393728   -1.84748258226228
H           2.06622414924001    0.48996377633059   -1.60121501831012
H           0.89624646261495    1.35084391323713   -2.07672785312330
O          -2.58327776025084   -2.05440406277533    1.65688398025302
H          -3.30223572552209   -2.61539180574369    1.35545382858897
H          -1.84052833298635   -2.19056230955225    1.03945145578273
H          -2.61141750273433   -0.49443455980149    1.06477373845874
