    19
        -40.92343663
S          -1.06852598342415   -1.02690918960288   -0.80561081682509
O          -1.87069115031940    0.17791876414235   -0.79960874938875
O           0.30242392745636   -0.78248986090081   -1.22505116681982
O          -1.12509549654751   -1.72665946959936    0.47863573765082
O          -1.68794645444776   -2.00813553408027   -1.87122638809226
H          -2.57068368968089   -2.14527052640363   -1.54163739466946
O           2.22593800836872   -0.52399137114077    0.60619899822677
H           1.67739803026427   -0.84787976727058   -0.13838247085094
H           2.51800473114929    0.35433306373363    0.33838749280718
O          -0.71234305765967    1.70067049287847    0.98404025914734
H          -1.33945935774979    1.25064407928565    0.36894291242997
H           0.02812944547228    1.97267865290631    0.40232800989002
O           1.15234331507394    1.71727232155688   -0.94935262622569
H           1.01070411900344    2.27600836580099   -1.71471143860540
H           0.82144383400373    0.82514673034584   -1.19516762985346
O           0.16731720844815   -0.35001829183828    2.09270738535673
H          -0.41425337794115   -1.02167336830419    1.54187012717471
H           1.09668138234320   -0.43676617074538    1.66238268717525
H          -0.21138542381291    0.59512107923647    1.76525505147151
