    19
        -40.92246911
S          -0.77463958616665   -0.58682834348372   -0.44899044190888
O          -1.63757030721766   -0.34575563556650    0.68394601964033
O           0.27899824645489   -1.52911322090846   -0.22189259086976
O          -1.62395213735024   -1.05333842316456   -1.65150261610799
O          -0.21041246401019    0.74533336009071   -0.93615875951284
H           0.64731433362951    1.08427934335081   -0.33781523138703
O           1.70221184115989    1.33919084452865    0.49943939337806
H           1.33541003419968    1.01521617207422    1.35770988275622
H           2.35681385836749    0.65228057989432    0.22979788476639
O           2.89414956375920   -0.90446595386449   -0.25848379095207
H           3.25842646248444   -1.09281869899408   -1.12503777964680
H           2.00245217970810   -1.30090569966930   -0.24007210692914
O           0.43765839503808   -0.02856523364728    2.38201764236963
H          -0.43361972156272   -0.12625297004480    1.96111773711921
H           0.82373036937701   -0.90793192978623    2.39527301046604
O          -3.15329895648174    0.97677230202971   -1.10259963266439
H          -2.92843051652652    0.69535759497317   -0.20076803134780
H          -2.62000232749275    1.75524927157321   -1.28657118560991
H          -2.35523925741055   -0.38770333941826   -1.69940942363212
