    19
        -40.92453852
S           0.16524521399003   -1.42435756795907    0.51578407782519
O           1.48274193501088   -0.96932916742835    0.08678184244405
O          -0.32958723560728   -0.60994432722055    1.62042701619312
O          -0.77772335012206   -1.50569014953982   -0.57985145968919
O           0.33787534638414   -2.89437067472155    1.06730718875498
H           0.96158296647507   -2.81684213389851    1.78343231952889
O           1.09351929872996    1.51494998945577    1.19927916688220
H           0.53908792939150    0.76735962337873    1.53974037765164
H           1.88542600332238    1.07602407536275    0.86700242222122
O          -2.23470708396741    0.56275293905533    0.00649092647850
H          -1.86695610411976   -0.30094321642203   -0.30369691642173
H          -2.13727555828948    0.51751835486973    0.96507802284188
O          -0.32644754921315    1.98225510640170   -0.82865457611230
H           0.28795853007971    1.95007814969523    0.01659636099208
H          -1.21019265705609    1.51115604344251   -0.52465328580046
O           0.75216188893285    0.12937829225987   -2.15386508501544
H           1.20381604116507   -0.31112090380837   -1.39118556345291
H           0.05187877158429   -0.48997014626943   -2.39016236846141
H           0.12159562315289    1.31109569294309   -1.49585045681205
