    19
        -40.92079110
S           0.39492099612526    0.84238682916009   -1.15808776704544
O           1.24571757956659    1.00548540704668    0.02227264380052
O           1.00139939815346    0.01130792686413   -2.16580342722628
O          -0.95262226408603    0.43896612051963   -0.78075411343352
O           0.23155857913683    2.28909400282049   -1.77895700420822
H           1.09626117735068    2.47803218815997   -2.12988668072891
O           1.46762675747227   -2.22057233791782   -0.82899444038498
H           1.39547579468930   -1.39194126008741   -1.35046118348361
H           1.57876333749741   -2.92832590272532   -1.46663125157916
O          -1.86044644477769    1.48919349722976    1.44429804956444
H          -2.75537108003557    1.17233261982440    1.58213084247073
H          -1.61829417899434    1.25306117350125    0.51768380998481
O           0.20640486764399    0.12356902771136    2.08827746092950
H          -0.61876824104602    0.71445300922960    2.07982564079522
H           0.77276968306137    0.52975887903570    1.29741949788068
O          -0.63613250962090   -1.76098233140683    0.69135821130005
H          -0.12477651722097   -0.78985099771721    1.64868560587348
H          -0.98278930440711   -1.11684571024699    0.04121429392484
H           0.15830234948149   -2.13912215098653    0.24640981145265
