    19
        -40.91749342
S          -1.16650404600567    0.04278976919570    0.58241897664284
O          -0.75927055174992    1.51297153182664    0.50540905358905
O          -2.26534718614499   -0.10665245275472    1.48359419124578
O          -1.30814713718132   -0.49216487410845   -0.74153061450340
O           0.08092785712438   -0.66628361440839    1.21534401576574
H           0.02301813429954   -0.48731488808690    2.18852530411872
O          -0.71928614620886   -0.14435981502876    3.62871471353561
H          -1.52618205053207    0.02679311858026    3.10758646057683
H          -0.92030721074092   -0.87517508888058    4.21878470268595
O           1.02616116629323   -1.75746772078253   -1.25200073014616
H           0.11223804575858   -1.42770909519454   -1.17979049141898
H           1.30067681659964   -1.92532231765935   -0.34700053660524
O           2.18917000882318    0.49058511715415   -2.10458577597762
H           1.86385353713087   -0.39111798028895   -1.80766871059056
H           2.57719358030141    0.36058747800550   -2.97141356587877
O          -0.14012190753992    1.72772389943952   -1.91384308683119
H           0.79296683711290    1.40206666550049   -1.99487421061259
H          -0.70272363449885    0.98102216865019   -2.15378642921632
H          -0.45831610190864    1.72902810870942   -0.46388325492721
