    19
        -40.91274119
S          -0.60456545036321    0.14442938110031   -1.15121274434063
O          -0.31203770412733   -1.20404302825113   -1.59838925836567
O          -1.37685164862814    0.09712299368316    0.10624229496317
O           0.56303276389867    0.98387346053474   -1.04030004559491
O          -1.54688549804093    0.80166028399627   -2.22139753353375
H          -2.30917078323915    0.23315357587668   -2.28386663168065
O           1.92502191975564    0.85387688455635    1.18740576541191
H           1.47437728511011    1.06509027261618    0.33353160323686
H           2.78574059767349    0.49613103350871    0.95831438192998
O          -1.26071962881431    2.88138408533470   -0.03047784205475
H          -1.60028548003577    2.02352360644580    0.24259362316999
H          -0.48995520573545    2.68359690887640   -0.57015202930161
O           0.87585912571217   -2.58062653653123    0.23285850764065
H           0.49215757184036   -3.46008757079783    0.22769363612023
H           0.49693031292780   -2.10809199315934   -0.55854208824094
O           0.13386903285589   -0.79113597711299    1.85391886019523
H           0.90526857186430   -0.10312335375737    1.76284444519412
H          -0.61070631011559   -0.39482798664942    1.21467793085455
H           0.45892053730396   -1.62190602031959    1.33425711437989
