    19
        -40.91971868
S           0.58202288434383    0.99704771980812   -0.81965627451112
O           1.51080928163697    0.49332924813805    0.29207011826280
O           1.10800586109386    2.22401027740298   -1.31776163367562
O           0.29992186052381   -0.04947511504843   -1.75233852479259
O          -0.76018733080407    1.28081673936501   -0.04848214159789
H          -0.52710891714407    2.05843888896245    0.52019580267572
O           0.54314700201782    3.20081032814342    1.09357208214634
H           1.21482065498177    2.83726272509876    1.67698658254340
H           0.94284479459227    3.24356443105395    0.20743878319995
O          -1.88200313946239   -1.15309874892794    0.90454794877655
H          -1.87727717581536   -1.72974223925974    0.12724835516922
H          -1.80799462963179   -0.24956566818952    0.57354547241753
O          -0.62286545036546   -2.48691187048568   -1.24273924604847
H          -0.70320631722757   -3.01577568126493   -2.03762985917152
H          -0.30836130301369   -1.60570739358296   -1.52991367184827
O           0.68949942546906   -1.73614863091419    1.08958022990213
H          -0.25617039467003   -1.54410578004934    1.30759268120003
H           0.62774985907728   -2.31310488093114    0.31353537400024
H           1.22635304440581   -0.45164433935664    0.64220792135598
