    19
        -40.92343665
S           0.56084499478612    0.65139965091451    1.45148704062720
O           1.25184658474225    0.77867416581464    0.17808180303265
O          -0.75811145125825    1.24710362321320    1.42984228196925
O           0.52491391054415   -0.73772748032780    1.91141677418447
O           1.42568204056003    1.44275912273636    2.50396959399397
H           0.94164543663881    1.31130589596579    3.31318057238705
O           1.27991046917670   -1.27323359260559   -1.52795449814861
H           1.55259378225731   -0.56992290366155   -0.90253520388970
H           0.87922591168046   -0.80669346319335   -2.26978280339601
O          -2.05193086840461   -0.14966837040939   -0.36400221903124
H          -1.77849490282689    0.41301383955952    0.39937354573378
H          -1.63639059902614    0.28861108589093   -1.13595643330792
O          -0.30868262208741    1.15604163271971   -1.93622111132982
H           0.29549084288227    1.16259251671743   -1.16119043841238
H          -0.48434319090590    2.07396601840077   -2.14739590699596
O          -0.52043197861610   -2.06237383121364    0.08890825859777
H          -1.28894212573784   -1.35468517046905   -0.13935987231704
H           0.19853520774816   -1.92813039928379   -0.63317675527363
H          -0.08336144217011   -1.64303234077723    0.94131537157333
