    19
        -40.92136407
S          -0.04203960015333    0.86816817008058    1.08021706466250
O          -1.27336584998021    1.15255569305813    1.77443963085553
O           0.35895340057007   -0.52008384265910    1.12444717095693
O          -0.05382653626599    1.36641484677538   -0.30643065606481
O           1.10361830207086    1.69477095720612    1.80494364022768
H           0.65283225729688    2.45433979853901    2.16287001885642
O           0.86169794894773   -1.76112023413317   -1.12697931163983
H           1.56707305021370   -1.13896777185320   -1.41188219449092
H           0.77040663295823   -1.55455984872468   -0.16848579218887
O           2.32935097780325    0.46289097172075   -1.14967947876228
H           2.93382289031179    0.55692562677653   -0.41145294419058
H           1.52127769584225    0.94974570279154   -0.90025047358713
O          -2.42237344568525   -0.90178002439183    0.58986442757942
H          -2.00629374942292   -1.62952187488819    1.06036057133256
H          -2.17066664056067   -0.09280197286954    1.09064186553349
O          -1.19118573696366   -0.45773847169714   -1.60067328290545
H          -0.78698246922852    0.41258945544949   -1.23554407333638
H          -0.33001701850141   -1.13109460341905   -1.53463969701366
H          -1.82228208926365   -0.73073255776121   -0.84176648582059
