    19
        -40.92267741
S          -0.17316770240005    0.68241243840848   -0.79895076112402
O           0.63899345772623   -0.36971568956856   -1.36638579781441
O          -1.20486248745601    0.11472344019958    0.10477038004725
O           0.60781722164841    1.68247484671696   -0.08606431067667
O          -0.94584317128476    1.37530113681183   -1.95559649902888
H          -1.43907610830526    2.08976672189080   -1.49433374653509
O           0.48355945037342   -2.85795371930386   -0.59740559332326
H           0.62259913105455   -1.98366838367818   -1.03846450220471
H          -0.22583434804864   -3.29180341928287   -1.07552558688852
O           2.02033528534092   -0.05364470827947    1.27834302941869
H           1.58845495133216    0.72372017422432    0.85044648865189
H           2.59752527753555   -0.42598884897865    0.60590779518091
O          -1.79783389706361    2.89090427707624    0.00836969434967
H          -2.22051731671503    2.17248742629284    0.48989874175029
H          -0.85428856505762    2.83103974500831    0.22800475511823
O          -0.03612553519911   -1.52864078621596    1.50402529272281
H          -0.65933193446495   -0.81659574874974    0.96815244602223
H           0.15315653721029   -2.23462174144075    0.78519550137048
H           0.84443974378610   -1.00019715111721    1.58961267288662
