    19
        -40.91897973
S           1.49760439908812    0.11904914945266   -0.63927798653748
O           2.49738637566672    0.49190646834706    0.32622054083422
O           0.89894192560834   -1.19546347281776   -0.34723208442231
O           0.45319668158109    1.11242887704365   -0.83125684536503
O           2.21939796200848   -0.04385191079472   -2.03887237609859
H           3.09687783518927   -0.35638865998666   -1.83483069565576
O           0.49981031006569    1.48692857345516    1.79317706165226
H           1.45187175029478    1.29953079790543    1.73536512527869
H           0.27941084330243    1.71972554140485    0.87173907468968
O          -2.65379907543728   -0.42343797551705    0.45556099109949
H          -2.30484971234422   -0.49961598589017   -0.47810778788763
H          -2.98751826374733    0.47134137120551    0.54790528428688
O          -1.39209516237401   -0.49803387330853   -1.82768753068147
H          -0.86128263642234   -1.30042393207373   -1.82274752333967
H          -0.75642921934652    0.21734861973258   -1.61805171651382
O          -0.48552737659407   -0.84714563990681    1.67824015042047
H          -0.13586570582968    0.10001780185901    1.90334792212430
H          -1.43734300333288   -0.72391886189483    1.26770621293215
H           0.12021207262678   -1.12999687826140    0.85880218319908
