    19
        -40.91892663
S           1.32928114572873   -0.16546502228280    0.51380357480916
O           0.95248295995383    1.06063449627248   -0.14481071809860
O           1.22079293772088   -0.13529073344997    1.95650678911832
O           0.60096203896024   -1.31535107547594   -0.05461284732809
O           2.85131327113061   -0.42068909982466    0.16825340818329
H           3.13772347959025   -1.06176895792118    0.81230009295772
O          -1.78579256738261   -0.64989169109484    0.06018454893786
H          -1.76628331502159   -0.23122352647957    0.99392852512699
H          -0.81829896732277   -1.05367482971517   -0.02823774272242
O          -1.29857260027493    0.37511821201856    2.33391048879029
H          -0.31358802048538    0.27778235049890    2.27608596765210
H          -1.56406288729115   -0.04807158215585    3.15338402443355
O           0.63342639877670   -0.05507756510634   -2.58235414650069
H           1.03717576451742    0.42621758067450   -1.84064474849811
H           0.63611211741606   -0.97610157332657   -2.30566116214417
O          -1.42786168419082    1.26307401232581   -1.51061393427966
H          -0.76794509299266    1.72249067693705   -0.96748793081243
H          -0.88251969016235    0.82516866815110   -2.20308052668746
H          -1.77434528874260    0.16211966006708   -0.63085365298383
