    19
        -40.92174066
S          -0.39376781990649   -0.55559187026483   -0.58038421794215
O           0.94896192089329   -1.01833775563601   -0.86124222513569
O          -0.70059272639304   -0.70783344168152    0.89803224616939
O          -0.66670577089061    0.78220090538897   -1.01736464038530
O          -1.39710903620467   -1.51528715676310   -1.25587177307326
H          -1.01318567513184   -2.42432279689558   -1.15264813952245
O          -1.30833877019452    2.75892260427937    0.69289629877768
H          -1.13151656272453    2.15215014428798   -0.05090379649052
H          -2.26017934403643    2.78183224298662    0.80448530755760
O           0.19020362100703   -3.55154632555843   -0.98687075663710
H           0.79491196636995   -2.79941556466507   -0.84694160297950
H           0.47614361603458   -3.99446406329363   -1.78986000397051
O           2.03401897339509    1.28160628406325    0.06621116944078
H           1.64639423589948    1.91145662242334   -0.54716067506743
H           1.86751478088799    0.40375234774809   -0.31492403065880
O           0.32279954985940    1.19550436231779    2.09544925667547
H           1.13180351971048    1.29931956383233    1.54084907011227
H          -0.27965989768168    1.91795189240153    1.80288713125954
H          -0.26169659089348    0.08210201503792    1.50336139188161
