    19
        -40.90735497
S          -0.83956219900777    0.63931047014853    0.55182932411786
O          -0.55182800983969   -0.74478218521417    0.26565344926289
O          -1.51488408982653    0.89490551592353    1.77906191090298
O           0.48800236612301    1.43396223926298    0.47803184437195
O          -1.62609907942927    1.25587403753459   -0.62665374287374
H          -1.16339984406700    0.95728299441569   -1.44294244180651
O           0.29972109966390   -1.58555481093158   -4.59597803699350
H          -0.55807257793843   -1.82423193301555   -4.95042877886585
H           0.13321223158671   -1.03833138898923   -3.81720483449750
O           0.05320113249820   -0.00997773752432   -2.20614042201278
H          -0.01846191731325   -0.60064600949506   -1.43228538298108
H           0.93176016490062    0.37957953354693   -2.17721060504339
O          -0.12183654001862   -1.09670901664979    3.00263002919084
H          -0.86116005899566   -0.47418771050780    2.93510241684154
H          -0.14005259458202   -1.58393074543645    2.17057609911512
O           1.70176174156665    0.76669950655908    2.60771855078552
H           1.06009272009641    1.22445616411078    1.29710222645099
H           1.57760955349659    1.42370340229905    3.29719537256990
H           1.14999590111631   -0.01742232604523    2.86394301147038
