    19
        -40.92174072
S          -0.11226893133837    0.88883805008013   -0.02784273718399
O           1.28030105073215    0.95409923449032    0.36240579825013
O          -0.25880495847357    0.09282859737607   -1.31166826324765
O          -0.99179179703889    0.38078274623123    0.98368294519681
O          -0.57867978496052    2.30518071149418   -0.42869053242934
H           0.18634791404138    2.71505370190353   -0.90946610331470
O           1.20739306670138   -1.55082731381646    1.38570436319688
H           0.55015404896877   -1.43395892656266    2.07672326953241
H           1.45259170902428   -0.65565576701841    1.09903470062849
O          -2.41154053601649   -1.88297490547905    0.66286710650067
H          -2.00122113733821   -1.03426985289508    0.91592905755575
H          -3.26129761419778   -1.66854356477625    0.27443448618354
O           1.78090609808914    2.96351701517814   -1.28741083404895
H           1.97193981578102    2.17552745431330   -0.74571012074967
H           2.21066487659202    3.70817618181808   -0.85899819574370
O          -0.19298920367217   -2.30990732157336   -0.73976961776822
H          -1.07179793986820   -2.40026044861090   -0.30386373415099
H          -0.21505433704054   -0.98159398735178   -1.14962157202616
H           0.45514765009382   -2.26601160479190    0.00225996345127
