    19
        -40.91209429
S          -0.81050500925817    1.69744785780542    0.48941376784869
O          -1.69533930334854    0.46201983855932    0.39151428780241
O          -0.37844453677231    1.88681529788211    1.83608918150722
O           0.18672472325928    1.66899337124984   -0.53854122050597
O          -1.79229452192435    2.88689168651859    0.13641394834133
H          -2.25451537483132    3.13458602993620    0.93517062571202
O           0.13030174752139   -2.44016294413015   -1.41237927925125
H          -0.46483909099814   -3.16549445514183   -1.21526154451301
H           0.63890513133904   -2.27479304576405   -0.58372784673215
O           1.46716606215323   -2.03855347212284    0.85808019302705
H           2.32393756184089   -2.46585543521564    0.91232267145766
H           1.63137637238699   -1.08688058126277    1.04618018445442
O           1.95100187065523    0.56871811777564    1.23775183231124
H           1.71587446487992    0.98415106003197    0.39756351090133
H           1.34007392648494    0.96498054240148    1.87285323391039
O          -1.18718587181580   -0.23499971879634   -1.92789828585358
H          -0.69334049639657   -1.09674223895450   -1.82509161332591
H          -1.59738660002431    0.09701135188211   -0.59960339126502
H          -0.51151105495642    0.45186673734418   -2.01085024564479
