    19
        -40.92120166
S           0.75790103891111    0.58514991843831   -0.10612936466599
O           0.12725123840652    0.29253088026643    1.16587649698446
O           0.04677277958971   -0.27981206568275   -1.18267269452879
O           0.74016404292104    1.95479123624546   -0.49290610673816
O           2.18569355447077    0.05181392651167   -0.10308669174088
H           2.21258804481108   -0.94019600201421    0.15194371373658
O          -0.47855260293507   -2.29368995524715    0.88049196385471
H          -0.40625896326497   -1.35664233712013    1.14621955789084
H          -0.88837112017720   -2.28958350134345    0.01174167492110
O           2.13256846963559   -2.38141329680798    0.62540859020901
H           1.15425352973402   -2.52579952141428    0.72007295172710
H           2.50693426280987   -2.45813584523427    1.50629588810976
O          -1.97869323584534    1.90416338393550    0.63653457935015
H          -1.31100460474298    1.29717888528125    0.99940852085053
H          -1.65927972120814    2.78733313016945    0.83595420411775
O          -1.58856619079504    1.48359749440952   -1.97228918025050
H          -0.94770076376383    2.18675420424188   -2.12229891792817
H          -0.64652946686195    0.32362481252649   -1.62509083152045
H          -1.95917029468192    1.65833463688726   -1.07547434510150
