    19
        -40.91642184
S           0.71655392583138   -1.44780239847584    1.15612838422883
O           1.17744515709280   -0.15537415292962    1.57139132906024
O          -0.79915822674796   -1.51985995528585    1.19749894369930
O           1.22723584793767   -1.91435500873197   -0.09850842726969
O           1.12135190332378   -2.48604043265005    2.26000698042841
H           0.92216763896415   -2.06427779820201    3.09271658842825
O           0.96644317862467    1.92423928004396   -0.17725617775752
H           1.16973704821059    1.32022197883496    0.55693287292650
H           1.02438313631235    1.38330640465385   -0.97615786943226
O          -1.65113965281281    2.22175567881646    0.11039001078464
H          -0.66232829694141    2.24728269624749    0.09143476197223
H          -1.95357100662397    2.95047013795868   -0.43353378666210
O           0.66383210530195   -0.21074170469010   -2.02065093513334
H           0.99136971662968   -0.87440382403729   -1.37410369176323
H           0.87216842626705   -0.55305309921861   -2.89211244546208
O          -1.72120605783966   -0.26561560894170   -0.71984799135365
H          -1.25772258232848   -0.99718652261432    0.36759363306008
H          -1.84384266149435    0.65945357995060   -0.37389429198868
H          -0.96371959971012   -0.21801922072150   -1.33802789777554
