    19
        -40.92052675
S          -0.53921935044279    0.41425499465946    0.49238523877155
O           0.76835853816784    0.92056811547227    0.15711692215084
O          -0.83359692955984   -0.86850397675611   -0.09635778900396
O          -0.68008815093967    0.35687138645071    2.01618593104127
O          -1.62763221138127    1.41326866742926    0.08959833289350
H          -1.92890991701264    1.15638824047979   -0.85891977271317
O          -1.99803650291141    0.51500768444159   -2.24048851374548
H          -1.91152548668532   -0.40721595502303   -1.97168231684976
H          -1.10991739679388    0.77365281211340   -2.57746548733367
O           1.02900056660213   -2.42810967599996    1.05828522865164
H           0.58526888362735   -3.19637780722926    1.42356657854636
H           0.36728105701620   -1.95956700335161    0.51515330532442
O           0.56025949999559    1.20977679441179   -2.50911204756944
H           0.84840488185872    2.09706488717500   -2.73323935554444
H           0.78863181111045    1.07436132251248   -1.57003441051635
O           1.70962973948423   -0.29569825213897    2.50365304258031
H           1.64566399199809   -1.18579368171761    2.08786424144130
H           2.07685718068822    0.27969446960009    1.82228868488116
H           0.24956981516903    0.13035698749444    2.39120217699564
