    19
        -40.92179451
S          -0.76574125791275   -0.24766685326508   -0.52774225915541
O          -0.68268641929725    0.96551726080963    0.43977159180366
O          -1.11978828954576    0.19022716603613   -1.83536474158175
O           0.48921060975960   -0.96856266990254   -0.45034841441467
O          -1.87811707189682   -1.08510693945810    0.09390586438872
H          -1.72085986930320   -1.10352617040609    1.11020999612858
O           1.19259391500459   -1.69496955687978    2.01156488079531
H           1.07701275069077   -1.42165867353178    1.07846476813450
H           1.45516649906956   -2.61716801096547    1.99330611796058
O          -1.27458599087189   -0.93285513036372    2.54458560741086
H          -1.20664480271886    0.02143736275892    2.64394425968172
H          -0.34425379259278   -1.27024710614538    2.52277901506736
O           1.71263335695603    0.67522852897142   -2.21757787911753
H           1.47578175333846   -0.00878441393381   -1.56858854005002
H           1.25220582103118    0.42936704367363   -3.02418461889800
O           0.21852507130436    2.64330170477378   -1.23021366333932
H          -0.49657919109746    2.61208677835267   -1.87324811460327
H          -0.31548874479762    1.74340182154298   -0.10774408473982
H           0.93161566286260    2.06997789794690   -1.60351978547366
