    19
        -40.91224366
S          -0.29270215129933    0.58456237138849   -0.16391221569017
O          -0.52597176240430    0.99430305182477   -1.63040322217491
O           0.53874947850807   -0.59408378805355   -0.13614085048804
O           0.18147672933298    1.69091558762254    0.60702550950630
O          -1.70587917208078    0.21440614231240    0.32617929021395
H          -1.82815731883324   -0.77737453790955    0.10833585478560
O           2.59782207273996    2.22429512336101   -0.45934844113733
H           1.73298938808389    2.19791978021366   -0.00988173663145
H           3.26041113640986    2.10193702144722    0.22330279428368
O          -1.93317730981422   -1.59609484666682    2.66669132588432
H          -2.73970155067603   -1.63882641397728    3.18476786373422
H          -1.84036974673647   -0.68697782792698    2.36278230575022
O          -1.54970542383271   -2.29343870324896    0.04322381375290
H          -1.66007083427444   -2.46170266794668    0.99550468812579
H          -0.60194238523295   -2.13667864177986   -0.09495062741132
O           1.85316814983859    0.46050240450565   -2.33533573733052
H           0.35977388153022    0.84547092562871   -2.10579116266761
H           2.30484347030660    1.17459646096911   -1.83687358219016
H           1.84844333832365   -0.30373143187468   -1.74517589030176
