    19
        -40.92343626
S          -1.35741860928289    0.14655335767145   -0.99097469870226
O          -1.96756036290836   -0.77710076908128   -0.03346683885824
O          -1.30328034215538    1.49873740336854   -0.47730880488333
O          -0.06111902468793   -0.33020753293014   -1.44642627451072
O          -2.29488585335292    0.15472873037440   -2.25708207786110
H          -3.12062329047430    0.47069839719816   -1.90379338738246
O           0.29526343929909    1.32718611258909    1.58642111668928
H           1.12065255616640    1.29416296718929    1.05898367690227
H          -0.39485263903275    1.57463439293997    0.92573314525054
O           1.40904927035987   -1.89528623296101    0.13854144637137
H           2.18754630381016   -1.32801237185255    0.16368471273061
H           0.87160850651194   -1.55697297114553   -0.60762643428583
O           2.04355154853665    0.91303043303514   -0.41087816078069
H           1.28857214739027    0.53620642242076   -0.91455190121309
H           2.35123823792927    1.66826454599711   -0.91376911828869
O          -0.32834062106242   -1.07531456672570    1.80821346932493
H           0.42138758879483   -1.53456174551739    1.27602334438219
H          -0.04226294222159   -0.04737587459781    1.87425846594697
H          -1.11852592363702   -1.03937067774756    1.12401831923800
