    19
        -40.91793070
S          -1.21660065726897   -0.91362808488225   -0.87942639711949
O          -1.16517400287852   -1.04286204353488    0.58574842160667
O          -2.33160489836622   -0.10176181178324   -1.31001615375955
O           0.05961478957331   -0.47974098042324   -1.40945873792143
O          -1.45644949525171   -2.37655093548110   -1.42976721399715
H          -2.36781384156204   -2.56287259792448   -1.22082750480222
O           2.21651925805455   -1.07574742586746   -0.06237444666644
H           1.37774858307602   -0.95055769152548   -0.56710585683610
H           2.92093372119597   -1.02736861534356   -0.71145838190560
O          -0.91021496037072    2.05463276526150   -0.87028106398309
H          -1.63959875021854    1.43836061260443   -1.10807382752568
H          -0.15724007920224    1.71472665200611   -1.36808129823461
O           1.96050967103812    0.77548916911376    1.76574611577903
H           2.15415299912811    0.35955562204549    2.60826173976210
H           2.12543467617819    0.08084568073723    1.07051395194541
O          -0.53179946796824    1.16105155562796    1.47606102337702
H          -0.67436970452323    1.69052655327334    0.60298579733078
H          -0.85244458072263    0.17739940113901    1.19591689649118
H           0.48839673012519    1.07850218494838    1.63163694648350
