    19
        -40.91234295
S          -0.39691868695959    0.48513416493639    0.07364922991141
O          -0.58755056080629    0.81539232219708    1.56932447117788
O           0.22955597208202   -0.81348512691190   -0.04152136795926
O          -1.62525494810696    0.65477200392352   -0.62604917062498
O           0.62209641710814    1.54453497670341   -0.39186185923198
H           1.54535457104748    1.16139445034246   -0.18043763403320
O           2.34872004737302    0.93515605636337   -2.74378503009335
H           1.49394134189948    1.26585297472259   -2.44837069092895
H           2.77235583688277    1.64496229656590   -3.23100387907644
O          -1.67440578031658   -2.35838498004687    1.08798382084755
H          -1.23251020818375   -2.91968145577751    1.72845698037991
H          -0.97294216851199   -1.92372780365871    0.56945056004754
O           2.74232776839783    0.18414939568534   -0.13900192298427
H           2.94820876690911    0.23239088485520   -1.08927802209877
H           2.14593976762961   -0.57306409879863   -0.03060549269017
O          -2.95263280111456   -0.08514806356366    1.70015950904524
H          -3.16609478972417    0.23624881523037    0.81528012818993
H          -2.69896544800528   -1.02566671287378    1.57896417949720
H          -1.54122509757388    0.53916990000036    1.79864622074994
