    19
        -40.91329949
S           0.44714492574143    1.03356642070386   -1.27772516937506
O          -0.78548122822706    1.30431558511900   -0.59083771264854
O           1.56657189774161    1.84659843368922   -0.64623583645230
O           0.78852404746185   -0.34496642293400   -1.42776465135276
O           0.35979223600190    1.64425683073343   -2.72014744703164
H           0.03946656760094    2.54238814620896   -2.65342790890753
O          -1.23679304378119   -2.08611845545629    1.55491035850272
H          -1.38574662997763   -3.03004311279524    1.62648095316982
H          -1.58057498342834   -1.81398944193110    0.67517542530536
O           1.21986858842184   -1.05243253654244    1.23741791742166
H           1.24555431575974   -1.02280062177206    0.27105751942572
H           0.36831221013483   -1.48330570048939    1.47399473368568
O          -1.79389928330558   -1.21060588043847   -0.92659424255552
H          -1.81524643660935   -0.25921249925508   -0.75043116993619
H          -0.93850397586977   -1.35049991213662   -1.35160924693493
O           0.95678267073524    1.46469884170830    1.71888196491824
H           1.13166237468346    0.47185945870676    1.71339755441432
H           1.41242427209526    1.77969748685450    0.40642966105988
H           0.00014147487151    1.56659337000679    1.66702728734658
