    19
        -40.91887199
S          -0.00422546645366    0.78841848743425    0.89061797580199
O           0.99057650081477    1.45931045197568    0.12437853377814
O           0.26241379154941   -0.59834406391593    1.19537388960648
O          -0.26980539825302    1.55954688164889    2.19714597682546
O          -1.38389686115406    0.85942514149350    0.19745727552082
H          -1.30452285967614    0.52683375490134   -0.77449132219205
O           0.88471769835516   -1.59749870892713   -1.28081972168488
H           1.69346449886487   -1.08857570083719   -1.49910044153568
H           0.76570027808217   -1.47731146856975   -0.32550388336796
O          -1.07246955623312   -0.13188881183125   -2.09814596632420
H          -0.29423850424042   -0.74004502847799   -1.89287288175607
H          -1.80090140642137   -0.70105789356969   -2.35718802647584
O           2.75146046438979    0.31532454244500   -1.61110154727349
H           2.26969955233859    0.81382803915514   -0.92873822878705
H           2.71166166429230    0.84911943902573   -2.40708811924646
O          -1.73768455420352   -0.44159254881163    2.96226862808035
H          -0.87725208334549    0.97567828026537    2.71922078019753
H          -2.53682901187580   -0.46424898029476    2.42979995214892
H          -1.04786874681630   -0.90692183313539    2.45878712669210
