    19
        -40.92246917
S           0.30594850592035   -1.02408529312725   -0.07236379165341
O          -0.89777704472857   -1.08395178450268    0.70037805927215
O           0.11569472348325   -0.99520771154530   -1.50391963133034
O           1.15199708290101    0.17756783404680    0.34050830312121
O           1.21051743680060   -2.21834451283933    0.30183012272431
H           1.98168157505502   -2.13538753993097   -0.31335532285814
O          -1.77737898992266    0.92419028137483   -1.36359473906017
H          -2.49053629051039    0.47185707031236   -0.90614868818016
H          -1.15197493248368    0.23047272611205   -1.63489956538612
O          -1.72456753777585    0.87391668188119    2.34760551393656
H          -1.55616130002071    0.06719589951755    1.82455946974081
H          -1.43752641143393    0.68334611143541    3.24220785132423
O           2.77987756267524   -1.36125616892637   -1.58615726710076
H           1.91895280899548   -1.18514316795665   -1.99950842085520
H           3.11177852310895   -0.51408709696265   -1.27577432750910
O          -0.32693293189004    2.14275842135771    0.48633923802596
H          -0.86704348724277    1.90827352086373    1.27792533966228
H           0.56143633270478    1.10197526458141    0.42013344407246
H          -0.90798559507447    1.93590944476570   -0.28576555739009
