    19
        -40.91892662
S          -0.00344176908203   -0.50401755984799    1.34345654875873
O           0.21674480828419    0.93158078256569    1.08618595720190
O          -1.38517978026295   -0.77271962959550    1.67911059015549
O           0.52235834624466   -1.30740205200714    0.26769144244396
O           0.85855981931220   -0.83715928962263    2.62666401032721
H           0.33664693876715   -0.51281158439377    3.35473140298972
O           0.93999300667441   -0.23430131896487   -2.23176204863020
H           1.76490273083280    0.06748126535771   -1.78785535873227
H           0.69176896335629   -1.02317142791164   -1.72431712648908
O          -2.63030903953402   -0.25871109754905   -0.54236904948532
H          -3.50557241618667    0.06572606491353   -0.31955076386050
H          -2.22291828541243   -0.56826025140135    0.30685993492702
O           2.63226636119688    0.30046351090965   -0.23532763769509
H           2.10742820920724   -0.44154245929866    0.10923462357878
H           2.33889750814858    1.06305031949916    0.27193900352212
O          -0.72804767119356    1.30225524634392   -1.17724478487601
H          -1.57437843747556    0.73749765937833   -1.06655152755497
H          -0.31126995895775    1.27942362312754   -0.21150202323409
H          -0.04844934392365    0.71261821848260   -1.74939321334934
