    19
        -40.91504900
S           0.96866068529845   -0.15127066999174   -1.47931588236372
O           2.16370991617707   -0.90194485492493   -1.27115277866791
O          -0.24309242843370   -1.03746494611116   -1.20649304661353
O           0.81784364554663    1.09997887392396   -0.80468109924763
O           0.86285052745181    0.15585897100193   -3.02535833318820
H           1.28552310779843   -0.55692819666528   -3.50063589128168
O           1.32733608847734   -1.67688952282562    1.20967542392974
H           1.84605644569314   -1.51929100118310    0.40746906176029
H           0.55669152045543   -2.18097168948162    0.93839935725334
O          -2.04724549630296    0.54942433646941    1.82837990031043
H          -2.46785447686047    1.22450264996302    2.36291216444250
H          -1.07028010585218    0.63414047121893    1.98814261198322
O           0.56802898304407    0.83167434107376    1.94928377514725
H           0.78268940183915    1.17370943566468    1.06984357956279
H           0.92507534129690   -0.07556627918601    1.95378655574145
O          -1.89990735510310    0.73995213037309   -0.76459056767614
H          -2.09906454915027    0.64185070265495    0.21195760226609
H          -1.21615565038314    1.42117568831694   -0.82465599315996
H          -1.06086561245684   -0.37194043134440   -1.04296642873406
