    19
        -40.92174070
S           0.67943551460956   -0.11712002301367   -0.57139862525600
O          -0.52869110313953    0.67872557200876   -1.02957418062705
O           1.45178696757637    0.65273583553569    0.38084870698140
O           0.28276174913147   -1.41404424011639   -0.10719952201585
O           1.51119290284670   -0.28220583898614   -1.86168995513762
H           1.98333884454831    0.58075447930944   -1.99119626005167
O          -2.29714524272792   -2.12018878621649    0.19132197772062
H          -2.61496112659307   -2.50497993894762   -0.62710982807735
H          -1.32917454667004   -2.03510563102256    0.09951837711518
O           2.70025828725444    2.00097456938404   -1.52528027891747
H           2.32932383963777    1.82970676863415   -0.63990622542349
H           3.65649650480291    1.98930592242097   -1.43446238829274
O          -0.26543207955328    0.06653867868337    2.38898356414349
H           0.46793254817905    0.38656908267496    1.83803825830903
H          -0.17381203745036   -0.88946934172470    2.41752701680826
O          -2.27616240221570    0.48854370161747    0.70640461576208
H          -1.34045211223780    0.66646088181834   -0.30537794024201
H          -2.54492825325487   -0.44933123413029    0.56969650423861
H          -1.69176826475402    0.47212954209589    1.50085618296152
