    19
        -40.91965883
S          -1.23706285296630    1.06766354425877   -0.51136667493229
O          -1.79251618545849    0.60198355993164    0.74973028920965
O          -0.16224972461239    2.04470746756802   -0.27744340990705
O          -0.80649234767807   -0.00472733431794   -1.37377874837664
O          -2.37697730637972    1.85294750828283   -1.26101237023149
H          -2.59386805652472    2.55077890144705   -0.65044916186155
O           1.76919290621067   -0.86914587001184   -1.47802185421043
H           1.01705284079321   -0.46391950270606   -1.94071036060450
H           1.36204854997151   -1.66745077874433   -1.06167042192077
O           0.00709007224870   -2.36974053653635   -0.20604688152685
H          -0.58195847365490   -1.73405352143354   -0.64436873309450
H           0.00607302841284   -2.12561959111781    0.72666804950770
O           0.10900925426073   -0.57127884051389    2.00099341031478
H           0.03056274621243   -0.40378752727016    2.94205422397323
H          -0.69347723718361   -0.15296702717590    1.57254003874156
O           1.75915622146954    0.68906502349431    0.47009753391608
H           1.89699080799998    0.02964567774201   -0.36790000004152
H           1.01705057731574    1.37543050570983    0.13911885184392
H           1.27037515955942    0.15046834142283    1.17156623921088
