    19
        -40.91504902
S          -0.66511998338799    1.60417704988862   -0.36179171217463
O          -1.17855908894558    0.33864039224459   -1.04227388816750
O          -1.60929084960038    2.03446058735929    0.61719137608329
O           0.69804136852880    1.42697707633869    0.03055713941504
O          -0.66291851874369    2.67494554198832   -1.52350781730550
H          -1.53453264692984    3.06278789312999   -1.57296963728073
O          -1.65335763988725   -0.44265487099244    1.76460471338216
H          -2.01343282733429   -0.92814774426327    1.01878463345249
H          -1.78430582825685    0.49620678024075    1.56756535022577
O           1.36235174172379   -2.44078140504730   -0.14831326662030
H           2.21085511818564   -2.87655112515261   -0.05699378113363
H           1.25214216181542   -1.87037814261690    0.65764423896120
O           1.05867354877406   -0.68915032976029    1.79424566029265
H           1.15677370457136    0.15488815689479    1.33110446079587
H           0.11457951142260   -0.72952057088682    2.03420086758927
O           0.98065658883611   -0.52692425900875   -1.87219964210802
H           1.13186226696995   -1.35190396029361   -1.32469104328390
H          -0.32602067325418   -0.11617613327298   -1.49412365557442
H           1.46160203553373    0.17910506326583   -1.41903399654218
