    19
        -40.90739491
S          -0.05965245733333   -0.47368050291965    1.01561943191209
O          -0.48887725428552   -1.57943505691893    1.79700986757988
O           0.62682492178137   -0.78827166652974   -0.21674464096285
O          -1.25922891221979    0.44334174497672    0.67026000708576
O           0.83360863847805    0.46967885237459    1.85595657063290
H           1.14121451615362    1.16915347036398    1.23449929152663
O           1.21886037024749    1.80292384689831   -0.37793606536442
H           1.15129009793526    0.88206820220245   -0.68971048232840
H           0.39861070259582    2.23834685779131   -0.62836650634409
O          -1.19088900252957   -2.71817508476782   -0.83942462370921
H          -0.45678616594802   -2.08288247340719   -0.83346964679371
H          -0.90540498973124   -3.44976240047586   -0.28657001953876
O           3.09006196511006    3.26926570461224   -1.99486322604600
H           2.51906464812522    2.77406900995065   -1.39314964651019
H           3.98024516993532    3.19747606092321   -1.64758050936508
O          -3.03912468110973   -1.34070292881760    0.50510153398788
H          -2.93277718053485   -1.74996214321256    1.36975703593068
H          -2.09055134960583   -0.15135578054392    0.58226998294518
H          -2.53648902705799   -1.91209571249026   -0.12265836462751
