    19
        -40.91226060
S           0.03726511694803   -0.82275573993542    1.60930908480163
O           1.51481717809005   -1.17129123286838    1.46295934900039
O          -0.13766406928827    0.51976105955947    2.06588779641047
O          -0.70021263865310   -1.20485519127807    0.44182937706066
O          -0.38907806592829   -1.79205765224479    2.76966195779344
H          -0.06502660323999   -1.40340549859942    3.57931652920971
O          -1.00881063282369    1.82431349598563   -2.07897403861865
H          -1.44589481153580    1.71105564741241   -1.20563866308342
H          -1.71225159401420    1.94336117576977   -2.71880557401859
O           0.39400812015736   -0.45570342725814   -1.98417590173201
H          -0.12309479860484   -0.89394225732340   -1.29140402089452
H          -0.05429116164472    0.40668440976287   -2.14141001220908
O          -2.11472002625930    1.13646100063230    0.27406854268020
H          -1.96223650626084    0.18555838798400    0.18761616722656
H          -1.53191671079631    1.39463245265972    1.00025952583744
O           2.46230260373609   -0.03431282460671   -0.53552674679150
H           3.19237549888680   -0.54690943713492   -0.89142413063338
H           1.69431918936140   -0.13413015457821   -1.19282015496489
H           1.95010990199325   -0.66246420412615    0.64927090274704
