    19
        -40.91817048
S          -0.60228846584641    0.50799989292451   -0.50827760165040
O          -0.90182631900962    0.34677428168671    0.99206165195474
O          -1.57344681052812   -0.24820578406897   -1.23771490338567
O          -0.46018561883439    1.88673672197304   -0.85605964043911
O           0.80143032260887   -0.14136979293769   -0.67333024006755
H           0.72570486881683   -1.14956048684255   -0.60761793028550
O           1.23752755644389    3.41514797320674    0.51005166231600
H           1.86913936005468    3.78905689718726   -0.10676291982188
H           0.53575684571233    3.00166892463442   -0.03229344048107
O          -2.09535023291420   -2.62748272750251   -0.20020868108743
H          -2.80297991543408   -3.05337371455309   -0.68756629574512
H          -2.06216650318661   -1.69994562490357   -0.51305078497780
O           0.52722091603634   -2.68205719337318   -0.55397172214548
H          -0.41997176711570   -2.80062569906925   -0.30320984751064
H           0.62333821329601   -3.04829557133593   -1.43627009006562
O           1.35359587908710    1.13889948265730    1.87652509868087
H           1.39316684348425    2.06620601108106    1.54782219441727
H          -0.08012476716714    0.67452159386593    1.48410883686127
H           1.93145959457535    0.62390483529764    1.30576467347610
