    19
        -40.92003349
S           0.81069229741047   -0.08850356244839   -0.32805496196183
O           1.23090533514061    0.08591271301619   -1.78939784792063
O           0.15492479787948    1.11207348408435    0.13357636750007
O           0.00003430574294   -1.26938350858630   -0.16955508738011
O           2.16160912876696   -0.26662755234333    0.36810921588863
H           2.03882490452054   -0.38093795301275    1.37577046176439
O          -0.90061986770153   -0.14352867105586    2.26890717917956
H          -0.71824008456325    0.51333249529672    1.57434570561095
H          -1.12217938671273   -0.95057526399100    1.79344042138207
O           1.64957084207207   -0.40610456746847    2.85593786463584
H           1.93693940111089    0.39712928953638    3.29703102085072
H           0.65838961271720   -0.36574981580000    2.80975296739443
O          -2.03049336205726   -0.73460191376662   -1.83411276606841
H          -2.14003173280107   -1.45787101309180   -2.45485346313689
H          -1.37227608087974   -1.03240463372239   -1.17685389821033
O          -0.73652195523369    1.51127535324914   -2.47719165098323
H           0.53207526551971    0.70073681348290   -2.22268141066345
H          -1.39605327919190    0.78731381699136   -2.38532955051930
H          -0.75755013174057    1.98851448962470   -1.63884057735805
