    19
        -40.91990210
S           0.33857793678270   -0.43473149263902   -1.40626455250369
O           0.61777443661875   -1.24641558008955   -0.19929071566763
O          -0.56819962745533    0.65035262548553   -1.06605023072276
O           1.53791001973553   -0.00375969707405   -2.06202062666510
O          -0.45109639889501   -1.39127519460568   -2.38078683240823
H          -1.34070473674239   -1.42561615053228   -2.03545166410903
O          -1.35865486247018    0.88957185632838    1.41183101538958
H          -1.73701278685868   -0.00638210872201    1.50628128132318
H          -1.26775295691207    0.99002812291198    0.43552039527508
O          -1.71678312770558   -1.74644463622975    0.93054655742983
H          -0.84118814333156   -1.68360920341217    0.49227143316920
H          -1.69297705776536   -2.53563996684295    1.47413383200750
O           1.83179788128625    1.99822971390616   -0.37527670799725
H           1.07849245628769    2.53504800591418   -0.63911595785623
H           1.91374170021613    1.31372991974022   -1.07838354292995
O           1.09344158046420    0.49116768748107    1.53206922567320
H           1.02758350338842   -0.33574206881277    0.91444871673727
H           1.48548136303150    1.20143517457708    0.89537575678239
H           0.04956880032318    0.74005300261221    1.65016262706238
