    19
        -40.92453851
S           1.07101949921017    0.45582339009016   -0.98369976890249
O           1.24933320482051    1.23613794530870    0.23541284311922
O           1.28483758208818   -0.96400184189365   -0.72525062335366
O          -0.19781464775031    0.71770372085854   -1.62984724957822
O           2.19213501082726    0.91478047334446   -1.99731198771319
H           3.01501022136272    0.73930478905028   -1.55012862570503
O          -1.40153919504296   -1.50634952342093   -1.03760997171518
H          -0.62248253844617   -2.07513796907774   -1.03724606183973
H          -1.07293922952617   -0.66529362820812   -1.44013552987042
O          -1.25591491958340    1.79311846191443    0.65423422415980
H          -1.53463905241836    1.87917802666087   -0.26485041933852
H          -0.26901298808090    1.74765505929464    0.59407761121642
O          -1.62273933951118   -0.61314289917418    1.30913135945392
H          -1.59864539585989    0.41535572888920    1.11517117553592
H          -1.66013981081714   -1.06454959862887    0.36564254244160
O           0.81789805858236   -0.96642857461205    1.82410348050103
H          -0.66225823143710   -0.82925047346141    1.66136224564372
H           1.09637355469640   -1.12392010299731    0.88605658726612
H           1.17151822688682   -0.09098299393614    2.02088818868006
