    19
        -40.91322284
S          -1.09584341247850   -1.02021636467500    0.63488281921249
O          -0.22026509560916   -1.73484047065025   -0.24733052098893
O          -0.64195769152857   -1.14333537042834    2.08342097112495
O          -1.36360057877573    0.34344478374815    0.30257063867851
O          -2.47119095999830   -1.78202735643851    0.64960640726408
H          -2.30145401676889   -2.71965324607739    0.72735670642411
O           1.81573026507998    0.09644391901823    0.32750529094611
H           1.34928423621882   -0.70265524809530    0.05475262959900
H           1.89244872652623    0.65088157463769   -0.47900577753334
O           1.62518906428774    1.51285788702607   -1.95768320582738
H           1.42989856964771    2.44967924694529   -2.00417992942984
H           0.82009322555119    1.04406424650485   -2.26615724755410
O          -0.65684853371970    0.12355311082752   -2.33003530140395
H          -1.08059213283070    0.41463806656063   -1.50880237205627
H          -0.37194246912425   -0.77866695526581   -2.14985001586475
O           0.46716805802471    1.06366297485534    2.32285202616197
H           1.15500460489155    0.81966514163779    1.64216856600542
H          -0.18399555113058    1.59845479726987    1.85515719567936
H          -0.16712629839733   -0.23595075735808    2.34277113955883
