    19
        -40.91990002
S          -0.23492594002258    1.41467994737526    0.02300405280238
O          -0.81084274434906    0.46045327868396   -0.91085131828300
O           0.53796417802433    0.68765796744908    1.06566272403933
O           0.54443337200220    2.43379140910064   -0.61198183110347
O          -1.43275424305755    2.07779286113088    0.79830453129703
H          -1.97021083872804    1.34093189377396    1.10275652940631
O           1.69411248754145    0.53640777107797   -2.11053795453410
H           1.44753491433465    1.35956533625116   -1.63622220468046
H           0.93192012858808    0.33788155784268   -2.66374039966824
O          -0.62679779857582   -2.06379610321048   -0.36255172547143
H          -0.89253242126397   -1.18680609146760   -0.73191002415578
H          -1.02958300062132   -2.06389929953416    0.51790237357045
O          -1.52990559286476   -0.65825914418862    1.92664034295660
H          -1.59924830742718   -0.73457100011065    2.88009584276621
H          -0.69378491071580   -0.18054838509320    1.74278696514335
O           1.68896360359990   -1.12125907642981   -0.17364724262491
H           1.35085570430878   -0.37177771840113    0.47337807069923
H           0.80337408318582   -1.69015209808563   -0.29045177883020
H           1.82142732639660   -0.57809312587806   -1.03863694330619
