    19
        -40.92246920
S           1.06464195822009   -0.10476471362021   -0.00094786134510
O           1.21986100926063    1.31097809162019   -0.24191282435512
O           0.68904065110234   -0.45712221350859    1.33485032545561
O           0.06909049482410   -0.67404805671229   -1.00856951748251
O           2.37381476506305   -0.83531086056791   -0.37086175822195
H           2.59257174387270   -0.49068187692839   -1.27285952538474
O          -1.65215037876698   -1.60715637164332    1.98767612508977
H          -0.75629275910791   -1.22547098463853    1.92074477439076
H          -1.54018952404217   -2.55807572046638    2.03434808013072
O          -1.11766269819892    1.92116236765902    0.96406576112444
H          -0.94222138037196    1.68325868527740    1.87793580182729
H          -0.25284161200034    1.92770415327777    0.51923377549455
O           2.26973789346708    0.51822598434914   -2.58845871362757
H           1.94613771564101    1.19451646603931   -1.97121845595586
H           1.49915976085674    0.18502748138756   -3.05681453109510
O          -2.20621690302414   -0.19974265159733   -0.18966691594563
H          -2.03424689006796    0.69973952507388    0.18123224138001
H          -0.97528523914566   -0.49515835744014   -0.71625803578822
H          -2.24694862758453   -0.79308095758993    0.59748126428039
