    19
        -40.91416430
S          -1.58521631324797   -0.25344882483055    0.57127720985915
O          -1.67508953599071    0.85674834249522   -0.46743672854916
O          -1.83963708779264   -1.51701112631633   -0.03745812287080
O          -0.39398111310375   -0.09983818494472    1.35172031105567
O          -2.79573167648843    0.05374533618295    1.53902532508510
H          -3.57363908975834   -0.36063496229219    1.17074035567186
O           1.76358054016301   -1.78456704021087    1.09831552518344
H           2.53353002666188   -1.22156796998374    1.20251955571005
H           0.99755472786985   -1.26034871615895    1.38235262580206
O           1.70869588911022    1.05048735355818   -1.49697551168246
H           1.67185554872880    1.32317953524965   -2.41510867003859
H           1.30906453593239    0.14782375454919   -1.46618005090327
O           0.59389322751482   -1.35856654362146   -1.32246929709801
H          -0.32654984506473   -1.53638342409137   -1.09189166433144
H           1.11752408921273   -1.74491834056943   -0.59420530686661
O           0.20510806560402    2.32121053443583    0.21573768655037
H           0.36402462903137    1.82715468542977    1.03013827587676
H           0.87166993808282    1.97251934196960   -0.43978345453302
H          -0.94665654644940    1.58441623894009   -0.23031804382037
