    19
        -40.90548064
S           1.61650497006355    1.02802549774683   -0.75333516143161
O           1.07156314004036    1.54893158770187   -1.97172774992694
O           1.13917639420409    1.61662599304769    0.45872637859508
O           1.49242621182662   -0.49362758232049   -0.71353465043953
O           3.17261708212811    1.21374288733292   -0.79795427699852
H           3.45960788798591    0.97764284082386   -1.67803404577457
O          -0.05950166140559    0.23032952698007    2.43851978215397
H           0.48888295599630    0.80760588603658    1.87683800745440
H          -0.57178297755193    0.80134435386521    3.01369851665930
O          -2.42342504498218   -3.34067259524243    0.22701859211306
H          -1.89900183283683   -4.02417923159017   -0.19271007310785
H          -1.88710468472234   -2.53712598841752    0.20680397689474
O          -1.41178470243705    1.33188353499860   -0.95524853161346
H          -0.65168204777604    1.47407160209881   -1.54360927503727
H          -1.42519186748537    2.08220220539924   -0.35682331293968
O          -0.77867571564796   -0.98115196552026    0.19404714233600
H          -1.24227149769315   -0.22820696200482   -0.23981938902114
H           0.55246621899306   -0.79512986829825   -0.34574977767924
H          -0.64282283867533   -0.71231171263388    1.13289382775657
