    19
        -40.92087808
S           0.39155121228232   -0.78417212736666    0.81884838118951
O           0.63468911089880    0.48637525596815    1.46884810265459
O          -0.93893110168502   -1.28964535606038    0.92521784424145
O           0.81503430166974   -0.66092934866665   -0.64386591465138
O           1.38344701917066   -1.83293893307145    1.36967726474739
H           2.26361842530425   -1.39059890133249    1.29462378031204
O          -0.91507717368694    2.28046262386366    0.21589825928553
H          -0.41060489851310    1.68385487745099    0.80092106031693
H          -0.62687760197316    3.17317993322340    0.41432313131611
O          -2.77313276685892   -1.04435114511435   -1.02528644993417
H          -2.26777741723041   -1.16118215546629   -0.19854712362946
H          -2.89102103983837   -1.92112531743997   -1.39555994864516
O           3.20604200184462   -0.03445685196610    0.88486269330097
H           2.47566041185942    0.51835827442223    1.20791905835116
H           3.19059482332622    0.02526734255770   -0.07471664250962
O          -0.90376134424296    0.61855965271338   -1.85767526521432
H          -1.00619695477248    1.37987256909569   -1.24423919723464
H           0.07955134341440   -0.10344172127076   -1.24870663437642
H          -1.70680837097904    0.05691132846534   -1.71254239951507
