    19
        -40.90903612
S          -1.65350511118981   -0.26655808183335    1.20480951478342
O          -1.06593419421043   -1.10466730835856    0.19861746770593
O          -3.06305697440352   -0.25604158365374    1.34480539864343
O          -0.95704396181004   -0.49713196462715    2.53504073283224
O          -1.21273031149269    1.22702097845399    0.82811472560204
H          -1.90332594557578    1.79859160590842    1.15614507611515
O           1.65055758040932    1.13371573776079    0.44143323995811
H           1.83257719428880    1.00545869553689   -0.51372227286173
H           0.75514300690003    1.48417449119436    0.48574971079978
O           1.77835484318157    0.61614226088481   -2.20087686213806
H           2.29095538703450   -0.09632159581706   -2.58550553606810
H           0.83978169335929    0.40021315013224   -2.35410927499946
O          -0.80445517167314   -0.24203096498803   -2.33450277027917
H          -0.92462360861124   -0.55085769807784   -1.41795976310616
H          -1.35139273934659   -0.80477749756440   -2.88469242438645
O           1.27243434461679   -1.14254672066732    1.64584348952565
H           1.57621305343066   -0.27403174007831    1.25037078951073
H           0.02820126333361   -0.78151504115966    2.29213222825121
H           0.91184966178074   -1.64883674304181    0.90830654011029
