    19
        -40.92453810
S          -1.44680998455488   -0.47458799757178    0.06067463140795
O          -0.60383478031078   -1.64370421260038    0.28205879729986
O          -1.25951296722309    0.50763396311944    1.12310944083779
O          -1.27093703730023    0.09413023375466   -1.25905827999104
O          -2.94769520060224   -0.95996604561516    0.14222537469270
H          -3.04430678474693   -1.31365483935467    1.02170817588424
O           0.05280537196987    2.22573665465963   -0.58998274571450
H          -0.35125878901828    2.35810823932988    0.27585808379107
H          -0.52195313458766    1.53985532621597   -1.01036358544074
O           1.12830804516614   -1.17971780459354   -1.60083343735999
H           0.51944268136961   -1.54446208451780   -0.91090798371248
H           0.52908357335492   -0.79209596291385   -2.24922419772739
O           2.03903893792019    0.71958663489099   -0.21651951258457
H           1.79554214632295   -0.06687286029971   -0.86334802173545
H           1.31860531428397    1.45562006314424   -0.40336422846760
O           1.09490528418917   -0.23000565979974    1.91758883543906
H           1.79546924314197    0.35428272800889    0.73236558354203
H           0.17900207616098    0.12607615280299    1.78916570677343
H           0.99410602443173   -1.17596254865133    1.75884737307310
