    19
        -40.92453852
S          -0.88711625858845   -0.62108854667028   -1.07231285540321
O           0.31256576518388   -0.11545333964029   -1.73059909034469
O          -0.55188335579620   -1.68070443143024   -0.12796133972585
O          -1.67435426321642    0.43282614901262   -0.46760398997779
O          -1.79191458682549   -1.26756130342361   -2.19401918254614
H          -1.25825115467849   -1.96061545088280   -2.57179024407363
O           2.05806820234201   -0.83177309007228    0.04630559071901
H           1.62697364088583   -1.64636793456486    0.33041419110607
H           1.53886037183244   -0.56051384792877   -0.75311660251828
O           0.15681198377266    2.27161267550402   -0.35666061121301
H          -0.67646444541496    1.74298956211950   -0.41622513166901
H           0.64607244285105    2.01048737064217   -1.14589952282245
O          -0.93853397396766   -0.32566332624099    2.05711563236070
H          -0.83363854297045   -0.99733193955496    1.33759530749781
H          -1.67953974074845    0.21331490301209    1.75664656929434
O           1.16187277643466    0.97440029174723    1.55686924381265
H           0.80751554321265    1.63827485688383    0.82971530349288
H           0.30891747360971    0.47966282509945    1.90919659814407
H           1.67403814204307    0.24350459639967    1.01233012387878
