    19
        -40.91521681
S           0.37669964371834   -0.30790561794410   -0.59659295471585
O           0.64012340864106   -1.43530744043139   -1.43301061610193
O          -0.73862391856154   -0.69350564476870    0.38388728961951
O           1.47807368369456    0.31034792473714    0.07677100484730
O          -0.29675282654977    0.82173786454725   -1.45038356438010
H          -0.98954175080917    0.36406513345255   -1.98930260739813
O           1.70401525823094   -2.28548322570642    1.07720585635844
H           2.10773644154385   -1.41749764495602    0.99674280068507
H           1.46795499853786   -2.54758502007704    0.18388704226792
O          -1.82345745261446   -1.03232848390221   -2.45358903353275
H          -1.00240021236908   -1.54267636864763   -2.36661835524014
H          -2.42092251300640   -1.36191009043932   -1.77681271422816
O           0.51654466648889    2.71703251129733    0.74413121634462
H           1.08928515242204    1.97546524735633    0.47613402919645
H           0.06119593224372    2.99597706641512   -0.05362341702074
O          -0.79697199112967    1.00018627906427    2.25856962948281
H          -0.17912599159707    0.70488952023533    2.93255782041027
H          -0.37731451385012    1.77782234899157    1.81005101203348
H          -0.81651803497765   -0.04332437923167    1.17999555133917
