    19
        -40.91832166
S           0.29215386641113   -0.13036461051612    1.35565658006242
O          -0.38690002962722    1.21778955758098    1.06228190373904
O           0.84592804239974   -0.09055613064838    2.66881407884554
O          -0.59582007976555   -1.20371680931686    1.01937011881269
O           1.46147967664996   -0.17124066935564    0.31211312128874
H           2.06511862840366    0.55487626318369    0.60629599811185
O           2.47489676367063    1.79492280162197    1.67583006075960
H           1.89911267221428    2.55669055757469    1.56701307224770
H           2.10009662785267    1.27126782274332    2.40371541599766
O           0.20336075242260   -2.06521019187661   -1.42057189122685
H           1.13087558708427   -1.81946504284090   -1.37808771253698
H          -0.13463697318968   -1.93194052343187   -0.51699664941086
O          -1.17924960046277   -0.13486376046719   -2.63575920519033
H          -1.71266743066062   -0.50337253002119   -3.34200396541721
H          -0.62629255057843   -0.87378177278087   -2.28777922560730
O          -2.32520465984600    0.49314056531470   -0.34430358975256
H          -1.95503365839584    0.37568084996926   -1.25815942391864
H          -2.33709103093461   -0.38729457154615    0.05081548604878
H          -1.22012662356283    1.04743820485193    0.46175582719066
