    19
        -40.92453850
S           0.66118839363954    0.73134656274160   -1.16200949704149
O           1.62261866741380   -0.23684384181985   -0.64560757051241
O          -0.51664776749338    0.05711869151128   -1.69575296561778
O           0.32489028195176    1.75139972224395   -0.19108959510839
O           1.35761522353139    1.47502959748732   -2.36899567719107
H           1.56138924568824    0.78772138414564   -2.99669093070733
O          -2.16698682941067    0.69246265452542    0.21033551214488
H          -1.70135891769580    0.44033701803185   -0.62591563729119
H          -1.82137264191093    1.57128109238605    0.40518031498713
O          -0.95496038771956   -0.92033454863677    1.72146674539812
H          -1.57541891304420   -0.26453765649558    1.19136989752636
H          -0.61004982831623   -1.58849855926232    0.99498077289447
O          -0.00484827301369   -2.20906767009565   -0.22363487003833
H          -0.60270440629537   -2.04425265610621   -0.96221282273507
H           0.75090056372008   -1.59075649336891   -0.39366991520583
O           1.10278449285061    0.51610168937434    1.95690627396338
H          -0.11227791735296   -0.35199678546755    1.97153129660361
H           1.82680936853681    0.01707286869252    1.56042180370287
H           0.85842962515145    1.16641693011570    1.25338687410384
