    19
        -40.91612652
S          -1.51553576584006    0.60780851077948    0.58699696017532
O          -1.19794921641567   -0.05687552011384   -0.69993937130177
O          -1.65581008808545   -0.38194298655815    1.63893998221123
O          -0.61428466293511    1.68511698996171    0.87217208662944
O          -2.95301632106624    1.23265603619974    0.37022276760864
H          -3.53427232806032    0.48190003430038    0.44447842566353
O           0.56738502597381   -1.63490173725575    2.01873693329882
H          -0.27098917804669   -1.09885982527591    2.01182066856172
H           0.35201324425532   -2.46416811462234    2.45107403326408
O           0.52859053800090    1.92141959377082   -1.47832291909509
H          -0.16888479155075    1.34040058680259   -1.80703716849143
H           0.24124477739053    2.09932228481812   -0.55856813376493
O           2.46660790259398    0.21333191804471   -1.17751714616171
H           1.82036195045604    0.97427683308929   -1.27487206352652
H           2.90238758773388    0.11377604234467   -2.02593319187642
O           0.77692520266382   -1.53265047096393   -0.49798686370490
H          -0.10706091723433   -0.95820683793727   -0.63846147167889
H           1.54759621028483   -0.88377854426980   -0.76099823797178
H           0.81469082988351   -1.65862481311209    0.52519470014563
