    19
        -40.91930879
S          -0.31696038981068   -0.62445928764674   -0.53328617045140
O           0.20773749030737   -1.46839432743578    0.48856572407989
O          -0.31120682938929   -1.40629354195391   -1.87244862980142
O          -1.64118246678638   -0.09069948765827   -0.32578144828762
O           0.63183957570406    0.55524832253778   -0.78169569702706
H           1.53408491712590    0.42624284253899   -0.27069832416572
O           2.69578357218093    0.14474163484138    0.57644818498823
H           2.97226779823558   -0.75580340148054    0.38892887825406
H           2.25899499677816    0.10961434257401    1.48104716681845
O          -0.66147836780989    1.53832147299598    1.64413080486728
H          -0.26056333814950    2.21360808973844    1.09201687970778
H          -1.19991665112845    0.99043786349237    1.05433025242968
O           1.21283444102875   -0.15176862757278    2.68932187898839
H           0.55552846133186    0.56093497688157    2.58704262019300
H           0.79613977543794   -0.92261378450284    2.27962058093872
O          -2.22287971291367    0.01921644012883   -2.90867833408636
H          -0.93230917028324   -0.93223839443167   -2.48311367756601
H          -3.02919824496257   -0.44668938001526   -3.14411868800530
H          -2.28951583691849    0.24059424700067   -1.96163200185490
