    19
        -40.91833218
S           1.16204960610140   -1.13151578092118    0.58831430668499
O           0.53940892909021   -1.78269202588992    1.71385539752054
O           0.41486332786704   -1.22619870214952   -0.65031753459764
O           1.51987275605066    0.26329278899011    0.89051081990896
O           2.53581599706286   -1.87614755901156    0.32849347431131
H           2.89021256218149   -1.99147072498001    1.20491400847817
O          -1.86126860968476   -1.05718727758082    0.91970567371334
H          -1.05244919513614   -1.34373563369316    1.39514572565336
H          -1.77786335425050   -1.47280565034586    0.05666753159422
O           0.39729439755341    0.57781808458053   -2.51041789166738
H          -0.42191489787814    0.45266849831922   -2.99391259179457
H           0.49618066032763   -0.21008098725310   -1.91703785201560
O          -1.92873121925081    1.52992166589457    0.53231605286474
H          -2.10726976997864    1.92702005794714    1.38676825568765
H          -1.95181764458531    0.54298266408763    0.67767035642218
O           0.38159508743627    2.00724573081977   -0.40870518118322
H           0.94768847724674    1.30249830665311    0.17802083580425
H           0.39425489964723    1.58768150578893   -1.34319442930665
H          -0.57792201980951    1.90070505875328   -0.04879694807800
