    19
        -40.91893415
S           1.17156524594571    1.08348745627524   -0.68802314073884
O           0.62449614858639    1.50414287819914   -1.95307608435485
O           0.34725468931545    1.52638654927271    0.44671148263478
O           1.47709717193851   -0.33027767529103   -0.58908683843562
O           2.55742194186208    1.84033692755597   -0.52479974406766
H           2.40354351565454    2.66765452981828   -0.97090142262082
O          -0.97287042849547   -0.59498663425531   -1.87279243813365
H          -0.51166185816297    0.25128605541953   -2.04359444236962
H          -0.26110843016441   -1.22455623538802   -1.72353398418392
O           0.95857039996255   -1.86017554541471    1.43570663312088
H           1.22751133477041   -1.37138020406190    0.61514541678519
H           1.73793356932599   -1.90070591990421    1.99292414089057
O          -2.61603908495187   -0.53431211743947    0.17070297296934
H          -2.05641934201384   -0.62011682254724   -0.64742513068221
H          -3.19013433434313    0.21981471700521    0.02264811977630
O          -0.81087993651507   -0.09750697760456    1.88688052044642
H          -0.29969910674282    0.66035779080639    1.33020028456632
H          -1.61729045009840   -0.32403003466505    1.27722980240108
H          -0.16929103798020   -0.89541870861877    1.83508384188293
