    19
        -40.91893417
S          -1.17938166071972   -0.92179604321989    0.87863449085163
O          -0.55977371151943   -1.23250955862676    2.14205647535604
O          -1.40717346511926    0.48923439805859    0.63606347284616
O          -0.47445487062071   -1.54492336381251   -0.25200303594990
O          -2.61583521222953   -1.59651964516185    0.90481457458297
H          -2.47372212597931   -2.38049205629775    1.42665138344430
O           2.62027708740097    0.33661751799239   -0.39008905616966
H           2.12553603066738    0.55684491385159    0.44495556050798
H           3.15574203135384   -0.43295714890356   -0.18726185279269
O           1.13375123656279    0.74836469144866    1.72945556644788
H           0.44718554222900    1.39721024533015    1.54787761847574
H           0.64129088701677   -0.04476754336179    2.02386820741915
O          -0.94738626438221    1.74398686955966   -1.58329892020380
H          -1.76031079962102    1.77057775791026   -2.09127402170128
H          -1.18547420524405    1.36998789688450   -0.69569738903712
O           0.68228597248370   -0.17026975355640   -1.93292781958588
H           0.16506296752203   -0.82654585447252   -1.26405725412872
H           0.09325045840330    0.66866036363646   -1.93599803223536
H           1.53913010179723    0.06929632273701   -1.40176997812785
