    19
        -40.91173153
S          -1.34280011093858    1.19651997495939   -0.39436784548705
O          -2.43605083036322    0.33388912212940   -0.06138536006841
O          -0.67454457822469    1.89000324652097    0.65258857486228
O          -0.33354169254402    0.41754066827030   -1.23786138984345
O          -1.90111770115501    2.27550758582105   -1.40517675151525
H          -2.58331472752591    1.85033490153333   -1.92025512127289
O          -1.48807772085986   -1.61828944485770    1.55720186464349
H          -2.20032676283097   -2.20740625538852    1.81277135368262
H          -1.89480202642665   -0.89549648322395    1.04730815853444
O           0.62407067473694   -2.02493545325457   -0.09183407752165
H          -0.04606572500077   -2.03443756407987    0.61796820980811
H           0.26658257974203   -1.43065129029621   -0.76187985355707
O           2.72668210300484   -0.61204903630580    0.67498951781817
H           3.50426088511659   -1.01774119727554    0.28812992596925
H           1.97033656865761   -1.22293729948786    0.48263141990363
O           1.72702164763063    1.49577832128288   -0.46828075892228
H           2.20920447545542    0.74876487518849    0.00071481291239
H           0.63563676150334    0.87978533455628   -1.01131651476393
H           1.23684617696576    1.97582002431442    0.21805384644004
