    19
        -40.92315430
S           0.89825550771917    1.40756639365362    0.30658357385047
O          -0.30859306128084    1.37289397418575   -0.52164471414990
O           0.56077168443172    1.10695271190394    1.70048488437439
O           1.94341990262219    0.57730608132192   -0.22869343298952
O           1.41293174430353    2.89575339849484    0.31391047149445
H           0.85266879446851    3.30593187550955    0.96537756304135
O          -2.26978165779525   -0.28822092532916    0.14078074393870
H          -1.71730540195996    0.49531766884431   -0.07406614146368
H          -2.29576790039865   -0.80501924175364   -0.67151047517035
O          -0.47176349462602   -1.15462900434055    1.71475637133068
H          -1.32138250260440   -0.92050238661231    1.18402740904258
H          -0.02902944810762   -0.22075408108782    1.86821734745809
O          -0.39505153349217   -0.78783698897643   -2.06532260655780
H           0.05730470544493   -0.68934399483863   -2.90429358198463
H          -0.31221062271755    0.07856267474290   -1.60839569292242
O           1.06292331530740   -1.89140258138466   -0.10617334957643
H           0.50908985178785   -1.77881088594824   -0.90831461026062
H           1.63617533396455   -1.09138504782414   -0.11438893239918
H           0.18734477292862   -1.61237966051664    1.00866517292981
