    19
        -40.91329951
S           0.03480413560575    1.30038267066610    1.10090810966588
O          -1.04550050983084    2.21297070813935    0.54122656881571
O          -0.55992298553176    0.06642642449200    1.53473389031723
O           1.15667340576233    1.17853251944955    0.22581946402963
O           0.52208335568591    2.09154214713828    2.36476214605736
H          -0.18503501432841    2.10685023880209    3.00773577806387
O           1.60366914940190   -1.47154402514243    0.89770258329034
H           0.77204041165857   -1.24187256925208    1.33629217822103
H           1.94881146521573   -0.62328175187284    0.59231537593624
O           0.60844225571581   -2.43436590484399   -1.40811689873820
H           1.27669946355008   -2.91872563777285   -1.89506159826293
H           0.99696840219877   -2.22605739233223   -0.52955237536099
O          -0.06881835207173    0.08663214014782   -2.03182583118770
H           0.53900313527372    0.55521151448135   -1.44327242756701
H           0.13960312732510   -0.86919997747536   -1.93321258699598
O          -2.27117016995878    0.50729592684162   -0.76279272170966
H          -1.67436788156013    1.58557816758693   -0.04759902104102
H          -1.52665289151264    0.31702363743387   -1.41526017577917
H          -2.26733049292945   -0.22339885653926   -0.13480247787471
