    19
        -40.91887171
S          -0.46502723870413    0.02596919223737   -1.09296901509511
O          -1.24000291334940   -0.26903308343949   -2.39093580593485
O           0.24094040325172    1.25593983508852   -1.21740736896579
O          -1.36016695892503   -0.07634165673059    0.03628831830832
O           0.50961832834444   -1.17201507706321   -1.02958969203611
H           1.21569630998000   -1.00993846027972   -0.29714209344705
O           0.27111643590811    0.69833371711344    2.09939773951176
H           0.47044342097302    1.62566764604370    1.85236890038026
H          -0.49398535512573    0.45540914078405    1.55455306690883
O           2.06336687571783   -0.71582501586175    0.90110596190087
H           1.44632295952060   -0.13955713396814    1.45297928028602
H           2.24276684121969   -1.50038280693296    1.42439649987834
O           0.87503917082506    2.97688952021455    0.79693438832761
H           1.80152411796637    3.19097863896329    0.67086144951625
H           0.59394853164815    2.51327484898482   -0.01070878101526
O          -2.37388106744956   -2.24772951688774   -1.14814099357561
H          -2.28357034263171   -1.60669272891425   -0.42225487713890
H          -1.79055079837603   -1.06694207907749   -2.18469734961749
H          -1.72359871078771   -2.93800497027515   -0.99503961816952
