    19
        -40.91792393
S           0.78114183909174    0.77234766272006    1.28536661100557
O          -0.64698795756621    0.88861614265534    1.52857944540390
O           1.28337880118333   -0.55292199142202    1.60391157734591
O           1.14383636669931    1.19769859626482   -0.05835481359074
O           1.50604968795316    1.77823718031510    2.27091031872527
H           1.39195323817802    1.35515621888307    3.11613519739834
O          -0.83328422999715   -1.24696209087719   -1.51077843378866
H          -1.36364763457436   -1.30552525558207   -0.60942731684306
H          -0.87058103707593   -0.24784155936879   -1.75212067776858
O          -0.75427700649636    1.27019657297915   -1.79176400758376
H          -0.39134536846106    1.70914130156440   -2.56344307786190
H          -0.08092954978944    1.37872984008929   -1.06475542237652
O          -1.99541861683295   -1.12602591781689    0.71054255442919
H          -1.46321696039046   -0.38088570292331    1.11726877372724
H          -2.90056145376828   -0.80836846828122    0.67288416901934
O           1.56350990154297   -1.40912009126480   -0.79415705299384
H           1.94794138698366   -0.57930920215007   -1.10103957214770
H           1.50332762297355   -1.26979123506865    0.19097520300540
H           0.17911097015362   -1.42337200082652   -1.25073349507682
