    19
        -40.92087795
S          -1.16825554839645    0.26525081446077   -0.02990287251189
O          -1.12555772712070   -1.00478245502468   -0.72349045702666
O          -1.18662783509814    0.19172634326895    1.39521871919639
O           0.00320333254701    1.11543861177934   -0.51929289172670
O          -2.39430178355683    1.06852053556790   -0.51784297799526
H          -2.32373747435524    1.03495567746429   -1.50284416214054
O           0.99773522461362    0.54474059023533    2.92338579437170
H           0.13152213819778    0.32315289519275    2.53225987103750
H           0.88928828252644    1.39395341578180    3.35557178770717
O          -1.53138276651338    0.50395328235149   -2.91049042205624
H          -0.70249515028265    0.98950315079322   -2.95196830748105
H          -1.34229579716551   -0.32537637308253   -2.44159425738469
O           1.19116326996362   -2.16149830726346   -0.02579393481090
H           1.41109644591724   -2.86764165366730   -0.63600814218621
H           0.28353483340601   -1.87425284218895   -0.24122499664896
O           2.07096440221079    0.28388564387191    0.52851806719748
H           1.96881153234119   -0.67813244001055    0.35284075263413
H           0.96366540329961    0.79991555733624   -0.07789544764622
H           1.86366923753714    0.39668755313018    1.49055385749821
