    19
        -40.91359134
S           0.02608828066570   -1.96818001336503    0.21407426071064
O          -0.45818531780985   -1.57529137115811   -1.16648045631399
O           1.42886272185073   -2.24195489986401    0.21718149038731
O          -0.41373434889211   -1.02168770881456    1.20447430788668
O          -0.75329418995120   -3.30721554799830    0.47150273937433
H          -0.33366239809958   -3.97681175001774   -0.06480572543563
O           1.76313270524818    0.51463389091325    0.73875412659547
H           1.04133400271245   -0.02755049372476    1.09982728935429
H           2.50176594470045   -0.09373528725826    0.64695299114484
O          -1.36319063672167    2.27118184642638   -1.10272723375773
H          -1.30286083006453    3.22294053198966   -1.19707122263020
H          -1.39335308580278    2.08246205101935   -0.13752964063609
O          -1.05231935632077    1.64350435400073    1.48250116430893
H          -0.14519984925796    1.86853600708331    1.70799659761261
H          -1.08949177295294    0.67471509303541    1.49305757748506
O           0.58411963262640    0.59551322201933   -1.67224010087907
H          -0.00703855683147   -0.62484544091951   -1.47420090832348
H          -0.16357814924059    1.24545976708497   -1.59930030929745
H           1.13060521412903    0.71832575953417   -0.86196695759540
