    19
        -40.92217277
S          -0.42323703421249   -0.67874511506751    1.12569079690065
O           0.96260897388619   -0.21077617811949    0.99508279637925
O          -1.09156861620786   -0.14872554322078    2.27933838206449
O          -1.13546153819088   -0.54664721667456   -0.13304393582439
O          -0.30140840746294   -2.25813556884518    1.34849801511987
H          -0.36735338542410   -2.37472473880543    2.29171008236830
O          -0.59548258510383    1.77306209138745   -1.36724507699835
H          -0.55380348904130    2.22195844164698   -0.49393828917139
H          -1.15894166142990    0.99956504389029   -1.18897446806578
O          -0.41857861185449    2.24731827774181    1.25622664653190
H           0.47669357058335    2.31027140963365    1.59751003430956
H          -0.81460383797240    1.48076809424495    1.70724293175851
O           0.35411147536804   -1.84714325465974   -1.84269710903739
H           0.69259812944037   -2.63013423586728   -1.40412587797813
H          -0.36544560498364   -1.50142695629839   -1.26590434147418
O           1.48726240340909    0.39499198093050   -1.34486379444001
H           1.39490499594441    0.17491842097880   -0.31602108340612
H           1.18541000259634   -0.47987616091413   -1.76107113176599
H           0.67229520069545    1.07348121799882   -1.48341457724090
