    19
        -40.91418264
S           1.72963351213435   -0.31584380436979   -0.38429993287383
O           0.84276165882743   -0.84224789056747    0.74404020357908
O           1.82223634980607   -1.29608422171447   -1.41708511135643
O           1.32346715590770    1.00902907413900   -0.73304426838669
O           3.15297914579894   -0.20077378894273    0.29230268391116
H           3.58592884484793   -1.04943813382769    0.22064916179256
O          -2.37732356669516    1.10925198731002    1.13955938017503
H          -2.31003073637528    0.27978359303947    0.60138073739114
H          -3.01644879706977    0.93108223297109    1.83114857242899
O          -0.55018463298170   -0.30076344552363   -2.35945420003605
H           0.21812895654409   -0.88680859192171   -2.36620142097042
H          -0.20022862383772    0.56695387657404   -2.13178828015782
O          -1.88522762772400   -1.13935960135223   -0.16184005540336
H          -1.08397539002071   -1.46439692619576    0.26233064904354
H          -1.61191921429920   -0.88353944516487   -1.06621904567086
O           0.14874517985557    1.31203752083948    1.70930353855523
H          -0.84509125812654    1.32769657951701    1.56688598870125
H           0.52593837858259    0.04117245670965    1.28518426722485
H           0.53061064485382    1.80224854847193    0.96714713188874
