    19
        -40.92182566
S          -0.37223665188791    0.84434625090020   -0.73162831089012
O           0.63078886624618    0.07826729016337   -1.66458742902591
O           0.41663324401002    1.37117716390270    0.34992351204148
O          -1.13335220382970    1.76630127424677   -1.50661837112376
O          -1.29420394179441   -0.25905389450011   -0.22861452626359
H          -0.84129944084781   -0.85823183070216    0.54853013784171
O           2.19612134119114   -0.64891522822471    0.60862327012098
H           2.44118809231421   -0.89468025961585   -0.28606376366603
H           1.75307627404290    0.21409436985596    0.53057566506208
O          -0.03374707926448    0.74660172924690    2.97379212248464
H           0.75536220767946    0.95840752389640    3.47686802896030
H           0.06789831016674    1.17863237377774    2.10865258657147
O          -0.13530741352496   -1.51436485176698    1.56575905311351
H           0.80361451153068   -1.43642948012837    1.27643131384729
H          -0.22357780557784   -0.85923625532754    2.29493282140753
O          -1.42630000236680   -0.26749146443106   -3.21648204019520
H           0.06683752428267   -0.19534159749382   -2.42792836777859
H          -2.05182132670701   -0.85234847403144   -2.78017246114849
H          -1.61967449563119    0.62826536026834   -2.89199322135591
