    19
        -40.92343664
S           1.19792783755139   -0.97912877598147    0.67198148229254
O           1.78468588525063   -0.76346026653160   -0.63337774525274
O           1.41588985521969    0.16106577148235    1.56358151035730
O          -0.20817277142056   -1.34333048641917    0.59848800861390
O           1.93735059013568   -2.20339258722929    1.33265392049410
H           2.83949912305017   -1.90256200830611    1.37876493563660
O          -1.45705073007209   -0.62723217378451   -1.63235319183890
H          -0.98938032649385   -1.02800469325836   -0.86656727345388
H          -1.43582531395625   -1.28175200512635   -2.33180277136137
O           0.44830820485795    1.26621805854384   -1.60159306660967
H          -0.34699282063764    0.74472341861988   -1.83856004962416
H           1.12104356790713    0.57889719583165   -1.38007002049633
O          -2.08380043439326    0.51329276984869    0.99492747955154
H          -1.51474956127589   -0.27917476309992    1.08600040935466
H          -2.52849337901720    0.40588701577419    0.14688131367962
O          -0.03344753250598    1.99823664210915    0.73118401264125
H           0.16862696320730    1.84195312173817   -0.30699535998183
H          -0.94922662277427    1.56359247390104    0.90024186881801
H           0.63380747544805    1.33417130180283    1.18661453701113
