    19
        -40.91941578
S           1.54349326358045    0.33956824550604    0.35311643281426
O           1.05233305900046   -0.55564723038435    1.38502183621942
O           1.69579765056936   -0.36718790678391   -0.92428047535161
O           0.75050234811888    1.54123941408434    0.22119010145741
O           2.99168217313238    0.79200658310440    0.77444901854850
H           3.45376628243497   -0.03459780324215    0.87323312464388
O          -1.23993927455805    1.36467216221195   -1.43287082860443
H          -0.50176162091504    1.53503084580976   -0.79180780080162
H          -1.09583919923317    1.95551971891003   -2.17432611323604
O          -1.07664240283499   -1.96112391491403    0.60456786918753
H          -0.20194431198100   -1.74176704076896    0.99009613689463
H          -1.65946232078921   -1.28879384277073    1.00844924198509
O          -1.52970748373580    0.44982711330899    1.67402233235851
H          -0.57467584733707    0.33336672802279    1.79246636382020
H          -1.63907291495394    1.28869687295189    1.22153138410456
O          -0.55661595998118   -1.08119083352240   -1.66779660765150
H          -0.87609568846329   -1.55351836521055   -0.76160979354962
H          -0.98734075092595   -0.15597617267977   -1.68137901757726
H           0.45152297885146   -0.86012456355242   -1.46407320528836
