    19
        -40.91961663
S          -0.13749453208594   -0.18624100875796   -1.59876141353083
O          -1.36318073572330   -0.72434712081789   -1.01184244673914
O           0.10869399580531    1.16701630826679   -1.07444874974332
O           1.00621864861821   -1.03893763470000   -1.45204799812232
O          -0.42787086263695   -0.02056975807188   -3.14420865242653
H          -1.31984415322895    0.31206491447111   -3.18590514708109
O           2.00707375363953    1.04935682243332    0.71753551011419
H           2.27687492878510    1.95372544326296    0.89062395551080
H           1.42788605682912    1.07620338448127   -0.08371272377230
O          -1.52643567307761    1.13565703929394    0.95019088915022
H          -0.94946812091435    1.35177782950708    0.17529474745547
H          -2.12701001583780    0.46958815664288    0.59249651274639
O          -0.00509226679827   -2.15015341004200    0.69828945055981
H           0.73367553951309   -2.09310231737638    0.06407756743961
H          -0.75075196841263   -1.82611629055985    0.14382343373231
O           0.28786488992660   -0.13940681233505    2.15289419729220
H           0.19563795360057   -1.07406446609484    1.64605980184315
H           1.09153954977859    0.32251873337996    1.70925204723826
H          -0.52831698779181    0.41503019701921    1.81038900833188
