    19
        -40.91287710
S           1.12364504075584   -1.38667766808719   -0.12151768879835
O          -0.19283132496395   -1.73842640352362    0.33668808833957
O           1.03705979560629   -0.13097441094653   -0.98789648774205
O           2.15539024736155   -1.23263992677912    0.84026018698001
O           1.56345434366768   -2.51157504611954   -1.13616100811767
H           0.78675756068890   -2.98858449589029   -1.42285786294115
O          -0.90949738664622    0.61976595131446    1.65068947934086
H          -0.01943924139881    1.00991157170702    1.74176665906904
H          -0.77208928462970   -0.30589064344388    1.41050798730213
O          -2.19515225233806    1.78092894284656   -0.34984785995665
H          -1.82921383205231    1.41618516412297    0.49398940501133
H          -1.82875943600118    2.66092254334420   -0.44676671786111
O           1.69911594872113    1.37715610784141    1.43290174170216
H           1.90327099037651    1.74374071350036    0.56973695496608
H           2.06029241028523    0.47717197266568    1.42864852465600
O          -1.33749037910556   -0.27638566261664   -1.68845978168063
H          -1.55060679095453   -0.95830618663145   -1.03724109949074
H          -1.75292837966321    0.55871982102174   -1.32708178894877
H           0.05902195029073   -0.11504235433212   -1.38735873183349
