    19
        -40.91833236
S          -0.20144008612930   -1.44510969010380   -0.92126867962536
O           1.03882953150200   -1.65254103836533   -1.62630384418999
O          -0.06012873088954   -1.69289169791790    0.52218685290493
O          -0.83230718087604   -0.16510643424838   -1.17590606153672
O          -1.21593290740292   -2.54386559131982   -1.44409973667441
H          -0.68451154514389   -3.33341098548158   -1.47959822392775
O           1.74146010131597    0.85978699392435   -1.28327679555545
H           1.67424387570550   -0.10775628275796   -1.43026123886384
H           0.96299968415709    1.21280234399564   -1.72344013871311
O           1.57577110077608    1.52780120538697    1.24239601970842
H           1.66337104089948    1.31302634930315    0.27215738877891
H           2.40599295304895    1.26866812158378    1.64632951972617
O          -2.28871887496099    1.13170022938823    0.52967184653682
H          -1.88500830565603    0.60977667346297   -0.21019397652271
H          -2.25420561714577    2.05258370215133    0.26284260765463
O          -0.45008508273012    0.20955427642027    2.02300160652863
H           0.36894977738130    0.78896265152901    1.78893689418264
H          -1.25955858282121    0.64691440434762    1.57255037811819
H          -0.29972116102016   -0.68089523126005    1.43427559146502
