    19
        -40.92071431
S           0.86352468930957    0.67219445898130    1.00040566619358
O           2.01526514214044   -0.06268206133463    1.47043978142272
O           0.92102472445894    1.02688011001983   -0.39887479385894
O          -0.39550209891214   -0.03705482779821    1.30351690364330
O           0.80729539615681    2.01502786883005    1.83106140732410
H           1.17749458321801    1.77672164655644    2.67627564680184
O           2.07163696977348   -1.57280260553540   -0.66704659339594
H           2.29860594082162   -0.91750950796915   -1.33336073941660
H           2.20605985247574   -1.11620114101231    0.19694637670118
O          -1.02487200342865    0.22834396700484   -1.97371418805400
H          -0.25686457445559    0.72042517982152   -1.60185057727819
H          -1.79119838291300    0.59227621155205   -1.48176722880743
O          -2.54911193599699    0.98706441142106    0.07516234458373
H          -3.34189690136573    0.67225815650288    0.51198045859547
H          -1.79542566207205    0.72680456211728    0.64132905157330
O          -0.46216250983522   -1.72520486728821   -0.56207023887700
H          -0.52479842402046   -1.17620879753677    0.30290116621576
H          -0.77363299176390   -0.97701402622656   -1.30411817210418
H           0.55455821605397   -1.83331873815644   -0.68721627106101
