    19
        -40.91346197
S          -0.41109108260444    1.60417698808945   -1.20472337133185
O          -1.82230206648653    1.13315968514445   -0.89311782633627
O           0.01020247346529    2.61412258120237   -0.28470085418001
O           0.47858342591131    0.48487546348287   -1.34659418329184
O          -0.58374341267084    2.25792448355479   -2.62138839023801
H          -1.00726258974365    3.10409955447112   -2.49102491266350
O           0.95767851728135    0.52321038638330    1.30674766532638
H           0.94846771634905    1.46752226619620    1.49001025992177
H           1.02426737744205    0.46630708060962    0.33659697054121
O          -0.12142057660096   -2.16255251082191   -0.63285679107261
H           0.61628295600788   -2.36991599339845   -0.02833474840456
H           0.19256705737138   -1.43589820980005   -1.18847005764046
O           1.73142293309236   -2.17723921995863    1.39346439157049
H           1.67061476211397   -1.22129541973885    1.53162605483557
H           1.49776414322444   -2.59530323866280    2.22400261904990
O          -1.51273290435338   -0.56637382467303    0.87124778354452
H          -0.73516480652404   -0.19432230225249    1.32991490328084
H          -1.79302087698759    0.38628078764810   -0.11186952605460
H          -1.14111305628566   -1.31877855748342    0.31947000314364
