    19
        -40.92174072
S           0.64092847299290    0.06092264642973   -0.62256416067065
O           0.86912487152673    0.71248012485167    0.72875164193216
O           0.72463356862649   -1.37939028793249   -0.50225148217363
O          -0.57343043639513    0.53993032376968   -1.21500746155229
O           1.83615192995750    0.55521579298087   -1.46601288864771
H           2.60831272038901   -0.00530208252743   -1.19433596167647
O          -2.30427898736625    2.11635216805562    0.11216770147591
H          -1.76749917215071    1.59099418976889   -0.51121956671134
H          -2.06759299493206    3.03408807980815   -0.03182391247554
O          -1.78215497062008   -1.53469100748529    0.50611367156681
H          -2.28464055778391   -1.18277955551447   -0.23332970041857
H          -0.89168651921361   -1.71219974573959    0.16058650290842
O           3.36929249349297   -1.36427430621785   -0.62650202537774
H           3.72242654082468   -1.96617068243835   -1.28657304519021
H           2.48151206274201   -1.69134701346716   -0.39036150462315
O          -1.23995016552389    0.58672086602798    2.00855940969511
H          -0.01074230971731    0.67694145882700    1.36832403825163
H          -1.77323687830737    1.25087607876778    1.51328106799161
H          -1.55716969861300   -0.28836704788361    1.68219770566441
