    19
        -40.90710341
S           0.72408306645388    0.81968000151441    1.41478354192262
O           2.03214344297345    0.24177999300871    1.30043580409294
O           0.20493129143244    1.18630344551603    0.02523508514128
O          -0.26185338174027    0.10554882756900    2.15125903778417
O           0.88476677294318    2.23854281067899    2.07690931334902
H           1.65867389182104    2.64822245619463    1.69445695618022
O          -2.57794766343865   -0.25054258822792    0.72812623242175
H          -2.88541731462666   -1.10590581103520    1.03517116435973
H          -1.78059937525251   -0.05777986151675    1.25248207613094
O          -2.20036467327401   -0.22141047166352   -1.97603138435959
H          -2.12738198572864    0.70454737752144   -2.21398029511608
H          -2.46949638267675   -0.22829711958880   -1.03325751387826
O           2.67486210233493   -0.91266462920219   -1.08559783106407
H           3.23014016433226   -1.67257703444299   -0.90072199743199
H           2.55272984930607   -0.46036244105579   -0.22938363577131
O           0.03183205586383   -1.09209865280134   -0.91055412917111
H           0.07872470233485    0.23059248912300   -0.42207279565314
H          -0.68307406880666   -0.99498081564416   -1.58079986257722
H           0.91324750575137   -1.17859800593365   -1.32645976632238
