    19
        -40.92453787
S          -1.49235164204307    0.07414110284138    0.29986171808164
O          -1.32893876128290   -0.82341525275389   -0.83773432010145
O          -0.83050550185409   -0.46409128155612    1.48346512375664
O          -1.07997641010787    1.42933931063763    0.00068176019803
O          -3.03662642344825    0.13817317488673    0.62543790283866
H          -3.28025391563302   -0.75759775329861    0.84009396092193
O           0.37830849814442    0.61652864911939   -2.16914131459557
H           0.03713949775024    1.48791349728479   -1.93661912489312
H          -0.32057022898176   -0.00201428632852   -1.83924296505387
O           1.13063653850913    1.47264026310914    1.36272117652837
H           0.28645525576075    1.67091443769028    0.88790276872083
H           0.85762533012177    0.87128812471007    2.06574948449795
O           0.86976078390944   -2.02080047213967    0.29810885512697
H           0.31472080455219   -2.27281600222478   -0.44929281456323
H           0.24509869012675   -1.54205824523284    0.90035900961525
O           2.12582936776090    0.03102691669925   -0.44993784997406
H           1.51727615015677    0.30649294829713   -1.25633852515543
H           1.85769075427370    0.68140437740653    0.32480339541899
H           1.74868122224549   -0.89706949918900   -0.15087821143108
