    19
        -40.91833234
S          -0.98637009129050   -1.24893103711307   -0.66905075017397
O          -0.08123226789689   -2.22271786306311   -1.22670207403587
O          -0.95979207468104   -1.25408465175895    0.80197985197539
O          -0.82523091709355    0.09307520602239   -1.19297389723418
O          -2.45069442325257   -1.70174830767654   -1.07004490104137
H          -2.43354956260980   -2.64412386041858   -0.93330585164348
O           2.19170513936879    0.63033440742029    1.08080683718622
H           2.75499426591920    0.04182671696490    1.58677892106595
H           2.11828341822768    0.22632689836758    0.17170522772558
O           1.88613513171934   -0.47654538191233   -1.27179514205983
H           1.29929076677514   -1.26232178738016   -1.25328483709726
H           1.41024248393660    0.15125218433457   -1.82301912945339
O          -1.27885453702317    2.26688997264367    0.14146902444297
H          -0.75354743649640    2.95091566520814   -0.27887212765166
H          -1.25041610538559    1.48058098538963   -0.46173909235463
O          -0.20179165552314    0.79838729071514    1.91420204834378
H          -0.58021959904406   -0.12323731965332    1.50311466125473
H           0.79365481147009    0.78406701386132    1.64968958702073
H          -0.65260733710725    1.51005384806433    1.33104164375936
