    19
        -40.91295826
S          -1.28167348967562    0.07806084233217   -0.84185530992820
O          -1.09613687426727    0.11025025095464    0.58903814910638
O           0.07550530893626   -0.02437148699673   -1.52795122462009
O          -2.19561371440634   -0.90216366069948   -1.32095925867541
O          -1.76590582919683    1.49606518305559   -1.29531841110916
H          -1.18065124722692    2.14197862427367   -0.86786355853015
O          -0.80837628103379   -2.82893159113120    0.09061540309971
H          -1.46058830137598   -2.22072998238772   -0.28856197410821
H          -0.79703987723116   -3.60252856586065   -0.47851144891599
O          -0.05053893608211    2.45192752528416    0.68460811807312
H          -0.35261710566626    3.01906679392401    1.39785159223429
H          -0.44879389288715    1.56299608181032    0.84508233076953
O           2.19848752416164    0.85058743273889    1.25322311255397
H           2.97688816687173    1.10681721687571    0.75459610216098
H           1.50687486617098    1.49981506391647    1.04307411498062
O           1.47697640869705   -1.40244701790559   -0.03467835403133
H           1.70047750262748   -0.73165482852074    0.64851817005179
H           0.75236325357792   -1.97023896870633    0.30053286271956
H           0.75036252805563   -0.63449892289368   -0.95144043596313
