    19
        -40.92136402
S           1.27829693953536    0.50402526499970   -0.18813480929193
O           1.05820851695479   -0.87272196784269    0.28868693274806
O           1.89176954973215    0.53974955101255   -1.49252739881528
O           0.06735998002604    1.28582757997581   -0.07852846536699
O           2.31853748208839    1.13225072243981    0.83385198748104
H           3.16863495411126    0.94205841400802    0.44732906568294
O          -0.44586483563407    0.06891794565789   -2.61299604925058
H           0.49663903906172    0.21536929975726   -2.37017038389976
H          -0.87350426823350    0.92093111810982   -2.48943033535066
O          -0.20513488987478   -0.37493070267689    2.60426347475581
H           0.21129027717659    0.40183171363328    2.98163152996127
H           0.36466779467947   -0.65319644544760    1.86245629434810
O          -2.10854923336427    0.12661237666209    0.80870752079901
H          -1.71565509827371   -0.14571642334809    1.66742073416160
H          -1.46990762155910    0.80362069781249    0.48754127914507
O          -1.12933096878470   -1.53314873834913   -0.74841590125194
H          -0.99138628048079   -0.99460013271918   -1.60857995315620
H          -0.20177935797923   -1.47492291472159   -0.31214989530803
H          -1.71429197829541   -0.89195735874862   -0.08095562775762
