    19
        -40.92221090
S           0.21596751502349    1.02856350331517    0.07442035848377
O          -0.23213301629961    0.12826469209867    1.24963774131973
O          -0.82991277099576    1.97065003392264   -0.16871044003081
O           1.52666302896473    1.54671290846838    0.31138910773491
O           0.32468364505640    0.03243636471415   -1.10940334616680
H          -0.55244155898303   -0.48370224636965   -1.13509493533485
O           3.06882698380021   -0.49693504647962   -0.39743344088625
H           2.66617252282734   -0.75546652332668   -1.23029014030105
H           2.70391773602502    0.38759126525948   -0.19630356341396
O          -3.28572608071412    1.04691254986987   -0.55937395135834
H          -3.65696478457753    1.53784597827932   -1.29503664442877
H          -2.45780693705993    1.50919616432395   -0.31245809279980
O          -1.89954077775606   -1.16885951611117   -0.87851962538774
H          -2.54761563054715   -0.42153974926685   -0.82267873930145
H          -1.85675698266090   -1.54312338533496    0.00567576709414
O           1.73823016741509   -1.42722897790420    1.66419029348878
H           2.32148703281758   -1.21868560710700    0.88577158202209
H           2.22912236195920   -1.15695499423326    2.44376030204805
H           0.52382755574281   -0.51567742416778    1.47045775723826
