    19
        -40.91503876
S           1.64468741285644   -0.05337999438213    0.48102839751331
O           2.95378840245118    0.01956468311640   -0.06905654585741
O           1.48833545628227   -0.54751381655537    1.82657886386003
O           0.87473526441335    1.20753308916905    0.29587578092133
O           0.82515779831196   -1.11088272356702   -0.43156722264910
H           1.30203060266018   -1.07809945496913   -1.25853485375558
O           0.53378042058586    0.97471863035342   -2.29884417164156
H           0.73385489990363    1.74543576995743   -2.83230448347961
H           0.77082183483118    1.20092905695357   -1.37437661067798
O          -0.95645151631928   -1.13922741177998    2.32208375724149
H          -1.07384134778494   -1.03155322612582    3.26841623266785
H           0.02341233116549   -1.03696223373438    2.15385283333205
O          -1.69157629748722   -0.33250648062283   -1.50889807249131
H          -0.99909109587185    0.17616617403788   -1.98251875838380
H          -1.28249536576286   -1.18069598506113   -1.30530567178176
O          -1.50119986008299    0.77329760997072    0.77380063518420
H          -0.48098530033244    1.06682443640695    0.62941605235112
H          -1.74121037643006    0.35476703034743   -0.13957067011862
H          -1.42375326329211   -0.00841513355903    1.44992449790073
