    19
        -40.90882860
S          -0.32136340817496   -0.37295114623748   -1.19196431206201
O          -0.94208117262703    0.76386213096072   -0.54403961402965
O           1.17616918420206   -0.41204504316881   -0.81763839915453
O          -0.92297601095237   -1.63233576704237   -0.91223171053543
O          -0.28800392296570   -0.10862749899587   -2.70803281520971
H          -0.07976376334884    0.86000437606171   -2.81794914028522
O          -1.16961028777647   -0.39621688326499    1.85472045952664
H          -2.01593746798394   -0.84878402413573    1.85548103056028
H          -1.16005287984133    0.15720254777506    1.04986568940801
O          -0.01870681070819    2.44576942851982   -2.40549677531442
H          -0.29766742938670    2.20286537140276   -1.50569263307569
H          -0.70198315770246    3.01629092435229   -2.76700192101333
O           1.45155794516742    0.81423343913405    2.48006484005674
H           1.87558720736064   -0.02783392314072    2.30113494858908
H           0.50900103570163    0.63730826088648    2.54657131493332
O           0.92744217006613   -1.95332797751772    1.21701423144631
H           1.27166792197480   -0.98878949742463    0.00345514561320
H           0.17283640987057   -1.46090327255701    1.61275052679591
H           0.53388441955477   -2.69572144789035    0.74898914455508
