    19
        -40.92175615
S          -0.00731977950388   -0.24187247727184   -1.02265892567658
O          -0.91177808726125    0.81827407840786   -0.33318760210976
O           0.87288522129613   -0.80334436300775   -0.02358188886893
O          -0.80401238814011   -1.20056652598860   -1.71848402809521
O           0.78078067995268    0.61556600393074   -2.00550965956538
H           1.08412230915288    1.46183097843348   -1.50912092980010
O           2.22846956656267    1.01633161247726    1.34595696324147
H           3.14587654702604    0.73970322207959    1.38732120593600
H           1.73117320073040    0.26728595259342    0.95451058820975
O           1.36176867657108    2.61208068988698   -0.56303541372516
H           1.77802647576713    2.15749601330569    0.21222662076497
H           0.48586376858913    2.88178925402011   -0.27201042717325
O          -1.04918245829480   -2.74946133155625    0.47370029305633
H          -1.07259386601351   -2.54376175697345   -0.47507296090127
H          -0.16233348543488   -2.48954624795527    0.74820596946717
O          -2.51202382860049   -0.62798480822738    1.02342289619674
H          -1.57921358051640    0.33144975409675    0.25648778725676
H          -3.33650940167979   -0.74842832110137    0.54618329118520
H          -2.03399957014282   -1.49684171720973    0.97464619069279
