    19
        -40.92136404
S           0.78119777696479    1.13912322655264    0.12060712258091
O           1.17678366804821    0.02664441982962   -0.76127816025083
O           0.48299213820258    2.34179777853572   -0.61671248587069
O          -0.26132683704918    0.72636888998879    1.03297462006157
O           2.06532134742482    1.43987211730445    1.00460904259282
H           2.54185011847581    2.09922406418152    0.50807324886052
O          -1.19440500072838   -1.71658495331738    0.86374352701910
H          -1.02672693856377   -0.79489597340274    1.16643576817840
H          -0.32477411733576   -2.14997877304667    1.01058648321569
O           1.45507433562399   -1.93236245281154    1.05268657988809
H           1.84083860338814   -1.52989724696405    1.83264137054887
H           1.51917156750445   -1.26406524635156    0.34442749358883
O          -1.90431161663218    1.39532962596122   -1.20772731469412
H          -2.34135295159971    1.48139839777748   -0.35582774554281
H          -1.05648001452065    1.88616961441959   -1.11372757014216
O          -1.00371759975907   -0.97499973106246   -1.49295571360757
H          -0.03453661907873   -0.65756139020775   -1.37066395203939
H          -1.19959153702998   -1.42736223167707   -0.51606549535402
H          -1.51600632331530   -0.08822012569875   -1.50182679902661
