    19
        -40.91864569
S           0.31906917043710   -0.01014123432549    1.13511845272701
O          -0.38383353308986    0.34605953225243    2.31787473583596
O          -0.03296388323529   -1.26940686904268    0.52219452044206
O           0.08755666392086    1.10982161399439    0.06266185708686
O           1.83277555155090    0.04170750274448    1.33675989023407
H           2.24592936314926   -0.55115135436311    0.60638848226896
O           1.57974434780760    0.52139374130288   -2.18087684422685
H           2.13345556404699    1.27179767028203   -2.40544141080692
H           0.96750305215349    0.82203523829048   -1.49000863167800
O          -2.64973371271070   -0.91330877780685    0.01091902175670
H          -1.74634719307662   -1.19619962860877    0.24680704309893
H          -2.82736382679156   -1.26394796406481   -0.86415545169505
O           2.45564940392409   -1.45813674360118   -0.59653794874639
H           1.63517908031569   -1.95199851457001   -0.46363076996737
H           2.27822586847448   -0.84816462326525   -1.34518639037797
O          -2.27679081315383    1.62146275195715    0.74084635625955
H          -2.09300948989963    1.50630529774711    1.68206072297222
H          -0.86743838478135    1.45756443383499    0.23906848974665
H          -2.65760721904464    0.76430793717435    0.44513786524417
