    19
        -40.91974998
S           0.59621411624587   -0.51838610410852   -0.29446172660953
O           0.57204921489028    0.85402106709369   -0.71865160498426
O          -0.43555402373341   -0.83430598679715    0.67205133606310
O           0.48208846756956   -1.44682953858495   -1.50549815683489
O           1.96314920494416   -0.91048416096480    0.27240814163717
H           2.18160134021071   -0.38227468835490    1.11831617993283
O          -2.59549457362466   -0.46591551462715   -0.90068154667813
H          -3.15373354539614   -1.24606742546731   -0.88536163539036
H          -1.90787265521864   -0.60416850276147   -0.22388263674017
O          -0.04806429961833    1.56050368173015    1.88576049372942
H           0.11596356388999    1.94520512595442    1.01593310963728
H          -0.47968318262880    0.71338148118393    1.69289401843543
O           2.26955536800923    0.43379726904390    2.41273127807524
H           2.15754599652278   -0.12851031834965    3.18315157200704
H           1.45443099246399    0.99682398491233    2.34832560493569
O          -0.92519977111779    0.09970896241909   -2.91771727583536
H          -0.04006680660492   -0.93166293305653   -2.22493202169082
H          -1.72566311565181   -0.01802576777166   -2.36167282120726
H          -0.48126628115577    0.88318936850193   -2.56871230849334
