    19
        -40.92145178
S          -0.09207904296941   -0.22776778393540    1.08938722365533
O           0.07292790707685   -0.91349677679011    2.32902171725867
O           0.92726989728871   -0.76866718181060    0.09463453087574
O          -1.40535965677711   -0.22451808863801    0.50332703428663
O           0.32356130712556    1.27407539589889    1.25912253634672
H           1.18575249758276    1.21698971753958    1.73752758391366
O           2.43541539679075    0.32605392260084    2.44210403859971
H           2.97574799514166   -0.13539819040656    1.79509655300693
H           1.77205836583379   -0.31466106049656    2.75046689182036
O          -1.07148803673627    1.92574773693012   -1.12688691220897
H          -1.45439461873542    1.26958926779225   -0.52113460786898
H          -0.59018537828812    2.54225461520151   -0.57017970770875
O          -1.80348820719264   -1.67213309039686   -1.78144346151764
H          -1.88231105431861   -1.19808023305179   -0.93590573655603
H          -1.81805535618321   -2.60819686504628   -1.57640323745315
O           0.29718074551447   -0.08083800164447   -2.19292757356980
H          -0.15240373162227    0.78085841459926   -2.01658384703668
H           0.71502725294451   -0.47366437627825   -0.93485465646807
H          -0.43517631258011   -0.71814743208161   -2.34436837950001
