    19
        -40.92219812
S           1.00932152089912    0.98310554908183   -0.50035992560043
O          -0.20120513627326    1.37512932435178    0.37524934124845
O           0.94141862116165   -0.44782936526516   -0.75414105685491
O           1.09317185732618    1.78221640778735   -1.66879412873176
O           2.17718540915481    1.26285096859527    0.45472623806073
H           1.93643383129313    0.77706916948837    1.29725953043471
O           1.13187628463184    0.03092535992440    2.48374896966036
H           0.52308630882902    0.70806325290221    2.79078356168322
H           0.57388698505859   -0.68532880176718    2.11666771191705
O          -0.34966671780150   -1.78607061908403    1.05946109523478
H          -0.10403594235607   -2.71225673041502    1.10058053868777
H           0.16702682717753   -1.39125612251874    0.31788980520900
O          -0.94262750863912   -0.08735155632830   -2.64914970004407
H          -0.70230978163242    0.77822894756074   -2.99120525475294
H          -0.14154017163682   -0.41521899035167   -2.21218215968486
O          -2.17259207228865   -0.04131776585778   -0.27949844711269
H          -1.91038367734574   -0.85931700973349    0.16717841017579
H          -1.07288987470099    0.87220159656980    0.12604709172449
H          -1.95615676283174   -0.14384363483448   -1.23426162122796
