    19
        -40.91521783
S           0.49165342234440   -0.92661560533035    1.20787269745427
O           1.31304870981610   -1.10469208865432    0.03457814618679
O           0.60799131679003    0.48882402287660    1.71284309372845
O          -0.87382841213723   -1.32167967996441    1.08022255925015
O           1.13920895286463   -1.78269290507759    2.35612497541518
H           2.06970770640017   -1.56915657623516    2.38064364746331
O           1.62971131575567    1.23557146730602   -1.33386233399964
H           2.03035217218167    1.01173262298280   -2.17644599470412
H           1.64002458451859    0.42394151420257   -0.79924663321921
O          -0.82416792567647   -1.27023752171457   -1.69522965197934
H          -1.41845996142974   -1.67439066512998   -1.05633146500807
H           0.05259335810064   -1.33623499289529   -1.28902164261862
O          -1.07878369168376    1.41047562011123   -1.36480410727713
H          -0.12315541494914    1.61081302316175   -1.39832236461364
H          -1.14211968964267    0.47483811194668   -1.64805458877290
O          -1.59996241026672    1.34605920292697    1.13048764132635
H          -2.06563871816598    0.50464270897078    1.22098120236764
H          -0.37630910545096    0.98922782646944    1.51459644886207
H          -1.47186620946064    1.48957388358491    0.12296835978049
