    19
        -40.91527122
S           1.41830776892103    0.52451480914887   -0.76654999643923
O           1.18603301151725    0.02898625614755    0.70256902789701
O           1.68335767438582    1.92231792628217   -0.69381117866909
O           2.31660148197808   -0.36979751312487   -1.40722637362048
O           0.00781961929007    0.31562065297936   -1.41292056314935
H          -0.52635590069042    1.13703211881931   -1.15758669831597
O          -0.99161117108474    2.41067012802666   -0.39105400546785
H          -1.27414899876719    2.02444523026489    0.45379202513489
H          -0.07879478182285    2.72292877849196   -0.29342542748999
O          -1.49505124455975   -1.70859773727416   -0.22866326772007
H          -1.32483035971342   -1.16342931801531   -1.00594938382199
H          -1.70810647460146   -1.08458372265857    0.47964943878576
O          -1.30304541946874    0.51513125421690    1.63752600190220
H          -1.44175739185147    0.46572849375025    2.58515122261349
H          -0.35428603380602    0.35730829833435    1.47787795226514
O           1.06244039249564   -2.39911721367322    0.13942390285738
H           1.52296184814537   -2.29385273532667   -0.70253264960977
H           1.20915686158080   -1.00347426384997    0.62051170404831
H           0.09130909793596   -2.40183145230746   -0.03678172119221
