    19
        -40.92071336
S          -0.05035773221114   -1.28001381461874    0.74249010615385
O          -0.21363148438196   -2.48563241539533   -0.03702364096911
O           1.18491873727386   -0.55843420417860    0.37832376389220
O          -1.18808376897629   -0.39058143975253    0.69729121208770
O           0.14502163462589   -1.73150791910536    2.24406201024861
H           0.55351508066036   -2.58956659034271    2.17260479134689
O          -1.27623170995441   -1.18195170012145   -2.04323002387257
H          -2.09729521576908   -0.88731996556989   -1.63815708954652
H          -0.89675305134056   -1.83324896975516   -1.40695576669573
O          -0.81890681956643    2.07815669322836   -0.12526208269186
H          -0.10550165734041    2.34928972623837    0.48973540004664
H          -1.19687353821977    1.27425190466636    0.30026610159281
O           1.34348362815943    1.90759454358934    1.42304249453691
H           1.35247249478692    0.95932403671916    1.18471319861158
H           2.25584058320867    2.20027235598163    1.41808666030820
O           0.44876601038720    0.65152626934872   -1.70204985895060
H          -0.11724531492572    1.40201102510398   -1.13484277228918
H           0.92437264165649    0.15289904115207   -0.94119779336814
H          -0.24751050805699   -0.03706858716295   -2.02189672044027
