    19
        -40.92218953
S           0.84904618820281    0.49073968982879   -0.61463512616741
O          -0.40251211995918    1.23558696677404   -0.70632696974220
O           1.22412646402565    0.26729939030241    0.77797437311967
O           0.77571372231097   -0.76846564898344   -1.35558797796229
O           1.96893344724399    1.33372900047534   -1.29157296042306
H           1.96598877436324    2.15305481301261   -0.75412316219795
O           1.22715687961373    2.99699164156711    0.60761966995545
H           1.36938271234520    2.24890273796621    1.20264950422925
H           0.33465939712154    2.86925006877858    0.25972449723762
O          -2.52450303493794   -0.24637247031555   -0.55249285025671
H          -1.77461094681245    0.40751412693921   -0.56808978325683
H          -3.00653426386915   -0.11678891013070   -1.37213831117805
O           0.12181920676081   -1.82041182791865    1.84985941354938
H           0.83900708951986   -2.40045623137281    2.11485740908463
H           0.54989562834176   -0.97531429970028    1.54522658727579
O          -0.96712977775930   -2.22644514928871   -0.39074368910921
H          -0.19339303584283   -1.70927012906624   -0.90425161010587
H          -0.61907641623397   -2.20254319486068    0.58385790278910
H          -1.73796989448478   -1.53700058397282   -0.43180691686730
