    19
        -40.91241715
S          -1.30983242524990   -0.61473116197800   -0.28670211661094
O          -0.58260390308590   -1.07982342673272    0.89535962825510
O          -1.76110766003026    0.75809329281156   -0.13609533803548
O          -0.55253904662751   -0.83490337065096   -1.49957642851934
O          -2.59845960922469   -1.52077647233910   -0.38943215407038
H          -3.08038249417378   -1.34808938782521    0.41499808707382
O           0.61976599818468    1.70066442066355   -0.82372121885173
H          -0.32685173382283    1.52806356387305   -0.63032112785740
H           0.77453866956089    1.32180946536220   -1.69376424002627
O          -0.35333343498816    1.70595952720071    2.01425490384620
H          -0.27441701364847    2.64650972271958    1.84566775092472
H          -1.01500373706267    1.37189194453261    1.39152568768874
O           1.90506707901533   -1.59027503310641   -1.11315158927435
H           0.97765035195994   -1.37531696648027   -1.39377038628154
H           1.90800797114602   -2.52339015399941   -0.89062277778754
O           1.63965851853420    0.02281750781039    0.81619770812845
H           0.71796697660698   -0.39479978939054    1.08863401734637
H           1.95842588294744   -0.63571550527418    0.08898763230792
H           1.35344961990759    0.86201182318595    0.30153196176665
