    19
        -40.91484850
S           0.67521051411803    0.07059297603520    0.40464470091819
O           1.64386440759931   -0.65101150157593    1.16694242332881
O          -0.11074678841264    0.95692398593023    1.39117853208128
O           1.13132629002541    0.85672746793452   -0.70083321918798
O          -0.42131711009614   -0.89817555193456   -0.13650358635489
H          -0.59780786447598   -1.55073225978178    0.58646136864325
O          -1.08993767023217    1.04209662958373   -2.19583675477483
H          -1.35476016332237    0.12144540177213   -2.26541952974735
H          -0.17155261994951    1.02541677512862   -1.87066851204921
O           2.24968313074507   -1.62464854658195   -1.41344222968225
H           2.48233237747055   -1.67832879138771   -0.48312133505284
H           2.14708112349900   -0.68830250207439   -1.60217600872222
O          -0.36385833269600   -2.14112766765893    2.14775950002399
H           0.56212813913665   -1.85098853888628    2.10482403309285
H          -0.77824677494470   -1.63838557478400    2.85355647662495
O          -1.84637816611801    2.21303243178158    0.03091261058687
H          -1.71307648383798    1.80361273836420   -0.86522200706965
H          -0.83791718454557    1.49328257891020    0.90464892609812
H          -1.60602683449241    3.13856996969179   -0.05770537195242
