    19
        -40.92085560
S          -0.29927695730522    1.02033480057998   -0.02685875888222
O           0.97917976543056    0.49801944986409    0.68535190448663
O          -0.94540668949317   -0.11845279526981   -0.63996544618482
O          -1.12599189521146    1.75672396628056    0.87355985046342
O           0.27673815002729    1.95349993201564   -1.08499952575465
H           1.09689229383787    1.49756667526459   -1.50119578962201
O           2.25289499660964    0.61057567494372   -1.92233584497695
H           2.70841677003223    0.41925526732736   -1.09723241125524
H           1.78582445661449   -0.22211316154914   -2.18163711237793
O          -1.91962626043988    0.15208743568095    2.87192902844375
H          -2.87799072433948    0.11552830760211    2.87890828347461
H          -1.67630309083812    0.86994636593735    2.25668336227275
O           0.62327323424437   -1.42514949684244   -2.32425001330500
H           0.18102645110405   -1.53237851652990   -3.16841428320311
H          -0.03690145349059   -1.03584189262857   -1.71189669593545
O          -0.19374273304381   -1.50458203117013    1.69758147392656
H           0.67938602386362   -0.33411966896579    1.18910969755184
H          -0.81103973887175   -1.04994276972978    2.31328372568895
H          -0.69735260873836   -1.67095755282171    0.89237853517511
