    19
        -40.91317278
S          -0.54429903315672    1.36436427574412    0.68494451684076
O          -0.48324944225520    1.49454277391598   -0.82772790446735
O          -1.15236147006648    0.10522106694997    1.03517113175714
O           0.70572720576567    1.67503687427261    1.28227678742771
O          -1.55878731042542    2.49314317731969    1.11549393233993
H          -2.44938669994904    2.17215055958493    0.98457453741633
O           0.95318680754042   -1.09176278985069    2.32690497140449
H           1.30563784998767   -0.31975191745083    2.77692112480795
H           0.08053610887038   -0.82807548146526    1.99844873797894
O           0.67541911342818   -1.65731004145600   -2.19188826244599
H           1.18080435132966   -1.27272901723192   -1.44003356519073
H           1.11616336272626   -1.36014683464094   -2.98969162800097
O           1.86540782049391   -0.43457476294136   -0.13815587598617
H           1.71512946171540   -0.92342281777548    0.69496831275328
H           1.74278262544118    0.49117536546225    0.09641026701356
O          -1.60189885163155   -0.57784478248877   -1.57180390825620
H          -1.74796416821524   -0.89453067897861   -0.66983693786465
H          -0.99062423397956    0.65470303382176   -1.25309919227492
H          -0.81222350761420   -1.09018800279481   -1.91387703525081
