    19
        -40.91790597
S          -0.25886193293398   -0.37812467079091    0.91789070360257
O          -1.67203932232869   -0.48217825314058    0.69360852178194
O           0.46627595821272   -1.53710104444993    0.25941427781805
O           0.32347236479764    0.87752659712874    0.51856783678671
O           0.04735873316649   -0.61326506185539    2.43002398323494
H          -0.43409689928533    0.10460640578940    2.89191570758547
O          -1.30527057700423   -0.77374648906033   -1.99653799749227
H          -1.64328948581565   -0.65208207462153   -1.09579281924324
H          -1.09607473858251   -1.70656854149551   -2.07942184461421
O          -1.45223022606307    1.53559236253305    2.60460045081365
H          -0.89703847900412    2.00057682488924    1.96896140947710
H          -2.14987886836721    1.11328157836204    2.09031130773534
O           0.80494963494950    0.94658048350137   -2.17399051676333
H           0.03150402503032    0.39665654537816   -2.39801515620384
H           0.59771905271985    1.30519377480892   -1.29783927361342
O           2.43498784657650   -0.69293987037482   -1.01789090877192
H           1.34242709387148   -1.24376661065471   -0.25699507218100
H           1.91668368681376   -0.07676127612786   -1.62410899004317
H           2.94340214869150   -0.12348065766747   -0.43470161757708
