    19
        -40.91505826
S           0.32488150014332   -0.61100146593984   -1.32836944592001
O           1.03606343414248    0.49226792214130   -0.71539906296013
O          -0.82546504013529   -1.03550585852696   -0.38599666344194
O          -0.16957990361111   -0.37877355063526   -2.63508017586247
O           1.24719547698437   -1.85454447772443   -1.28079401791455
H           1.64641342324345   -1.85649587283575   -0.38215362572427
O          -0.79819759697613    2.13641427031710    0.47534426186297
H          -0.78890768549314    1.63771409366847    1.31071081344763
H          -0.00580660342845    1.83387748979670    0.00554964934122
O          -0.37522122097972    0.01253307198503    2.22033846559522
H           0.52146104287356   -0.30817088589249    2.35601460634860
H          -0.76352033057944   -0.57511037708023    1.56156173098210
O           2.17478591300051   -1.03133168207151    1.06937278994539
H           1.86785433122921   -0.24409797459430    0.57263766572771
H           3.12512024177743   -0.94479075639044    1.17411396246226
O          -2.43503356945176    0.75794860949032   -1.01579818516254
H          -1.61869360841549   -0.39451967065465   -0.61264452541440
H          -1.97710780529734    1.44967483541540   -0.45734919036765
H          -2.18624200907354    0.91391228957562   -1.93205907300408
