    19
        -40.90627055
S           1.75509927605341    0.38214318023148   -1.13857568125963
O           1.14788617482801    1.35997541860339   -0.28384572533825
O           2.38511889314636   -0.73132766116910   -0.29912944532913
O           0.92626650108249   -0.15637527128816   -2.16887464982567
O           3.01632384022773    1.02275292195916   -1.80421573850179
H           3.44755527527228    1.54061910215095   -1.12758819485608
O          -1.30254183301343   -1.28069334664660   -1.21607230535234
H          -0.54916533289940   -0.87580701137382   -1.68778378208967
H          -1.97382316332271   -1.46090545847628   -1.87641717718771
O          -3.02075626665716    1.91646088478659    2.21713635892455
H          -2.30843026443887    1.37033227879922    1.85192066248172
H          -2.78274078133166    2.09054173803542    3.12872843205978
O          -0.97257548408507    0.34744255670616    1.04569625125481
H          -1.46113807664498   -0.02103917507349    0.29372902663146
H          -0.28583064022517    0.92019127447590    0.65994376101696
O           0.46795256227354   -1.86979711704349    0.84233431537744
H          -0.10599017566167   -2.18575683825088    0.12888611389297
H           1.64527890084844   -1.26287712889270    0.21227581490840
H          -0.02848939576588   -1.10588034744046    1.22185195332642
