    19
        -40.91484847
S          -0.49074096118183   -0.11905241783334   -0.60821368955941
O          -1.23794309105473    1.14601343787435   -0.14159302290347
O          -1.46872799666927   -1.01297929421178   -1.14167103638075
O           0.61726615111138    0.24648209869785   -1.43707089260577
O           0.09276586692774   -0.68491866040858    0.72331123471874
H          -0.66591004166790   -1.09693887581480    1.20741004704394
O           2.44062372896250    0.99431376050892    0.38501300502945
H           2.44102984098168    0.24021391071771    0.97998005199173
H           1.98130310854010    0.69170979357050   -0.41926020040401
O          -2.30161024991432   -1.46812557174753    1.37076439474402
H          -2.87542566766971   -0.73993474848534    1.62202596164148
H          -2.36510881669880   -1.55350621029106    0.40525348965907
O           0.86117630959995   -2.55305837315852   -1.56105157461538
H          -0.09339465596824   -2.53646376904566   -1.66582751055393
H           1.16939818579350   -1.68997843466531   -1.84913451071821
O           0.50449819351558    2.71343942360371    0.83193966467435
H           0.66293104055285    3.45510727880506    0.24277023593311
H          -0.58871315116328    1.82567833502926    0.27044319305257
H           1.31658220597084    2.14199831686358    0.78491114925816
