    19
        -40.92037967
S          -0.52030399032787   -0.51595001431455    0.79180352615760
O          -0.95655652862426    0.85913676736216    0.61327589970681
O          -0.59221221018488   -1.23811100534913   -0.54176642987741
O           0.76930000404935   -0.65480779919212    1.38930777477368
O          -1.56708404855591   -1.24832785913340    1.65684454731575
H          -2.44900095062739   -0.91517513727242    1.35406367256907
O           0.88758726143579    1.96921438771304   -0.98614725646866
H           0.24197247088187    1.67371034781620   -0.31542219064358
H           0.45376956132376    2.65422046385771   -1.49892264597672
O           3.06146797260492   -1.05993771871206    0.03792646909892
H           2.31229310648407   -1.03854591294280    0.66201205350985
H           3.63873423508516   -0.33696676782519    0.29258817415403
O          -3.51710636397252    0.21771975841260    0.75429009439740
H          -3.99532800652839    0.71671067613674    1.42115314376440
H          -2.71794016628327    0.73126302956284    0.53194857534473
O           1.34090735880898   -0.49752690804468   -1.89580229648883
H           2.09701918680482   -0.81238231647134   -1.34213451698697
H           0.22893867265237   -0.97468447786119   -1.19460641311298
H           1.28354242494781    0.47044050622623   -1.73041218124625
