    19
        -40.92021787
S          -0.54093057015394   -0.88290504922117    0.23620221868191
O          -1.07913346240352   -2.06564299022714    1.07119063640443
O          -0.62679125362365   -1.21392129172106   -1.15091135668153
O          -1.25996147103461    0.31733020228976    0.62603076340021
O           0.90539322082651   -0.76610298861578    0.68039456582530
H           1.47981716092840   -0.07520022442890    0.05595634666156
O          -0.03149298709622    2.43683115229440   -0.47777400156349
H          -0.60453622632263    1.72425378241505   -0.13591215062171
H          -0.05179803040763    3.14189876355953    0.17219026762557
O           1.27547766480354   -0.55700300928852   -2.93057395824853
H           1.70530844176260   -1.37758166424915   -3.17877598174492
H           0.46887004288280   -0.80743191730785   -2.44114685717428
O           2.05291433370342    0.82471220318220   -0.81423176953709
H           1.92035771781365    0.39846043004439   -1.69679077948332
H           1.41141518932214    1.57198195625097   -0.78329491798693
O          -1.64971744402196   -0.52918227101969    3.09341050193347
H          -2.57364280593655   -0.52496147835819    3.35532687236002
H          -1.23778848362441   -1.70239456754181    1.97765922670163
H          -1.56376104741984    0.08685897194411    2.34105036344372
