    19
        -40.92453733
S          -0.69300469019512   -1.25687277836190   -0.51290058335323
O          -0.75024626651761   -1.30133006443588    0.94353202233083
O          -1.42965434138855   -0.10649546169667   -1.02532205051764
O           0.66309455088879   -1.31799751479086   -1.01625821767937
O          -1.42765704634577   -2.54839593098128   -1.04870095783166
H          -2.32288242471266   -2.47207284157517   -0.73153124736238
O           1.70519636824093   -0.58363834075298    1.40776681920473
H           0.78467769019928   -0.94770049297105    1.40389695474977
H           2.12403549701464   -1.01843743444405    0.65604553952426
O           0.90809332495748    1.15373867968033   -1.77372102566139
H           0.95675001684912    0.17433557451862   -1.64744276721102
H          -0.01345390615976    1.30405781673639   -2.01562086567880
O          -1.35058476028299    1.37670049702905    1.09904316177678
H          -1.53404967892308    0.91396680152553    0.24205435757862
H          -1.39432552380458    0.66843971412630    1.75218410183971
O           1.10347209649734    1.74921245590595    0.66791206324568
H           1.10936128624420    1.62821633225139   -0.37147626383309
H           0.08970380958409    1.73923422019949    0.92358329508885
H           1.47147399784404    0.84503878805664    1.04695566378393
