    19
        -40.92021795
S           0.14125289545406    0.29922617724073   -1.00878353477046
O           0.68844190891093    1.09159736777499   -2.21642443816213
O          -1.10226589111279   -0.30364053946788   -1.37110495488278
O           1.16742613261058   -0.62910252973642   -0.56750905213982
O          -0.05856369336119    1.36545786980654    0.05231390209644
H          -0.60513001115384    0.99080446976275    0.92301586673473
O          -1.29030928061290    0.36431563818221    1.93967986503259
H          -0.74802033820161   -0.44649879339592    2.07852162537963
H          -2.11845416537861    0.05604426986102    1.49541563682049
O           0.40496937648010   -1.67543908250219    1.78712703232327
H           0.70486215725487   -1.43807773244618    0.88899663685350
H           1.19243817471485   -1.74971351519794    2.32966862536817
O          -3.19874953718457   -0.45346242762577    0.30218134956871
H          -2.52478620621637   -0.54782245760255   -0.39763380414847
H          -3.85899612734016    0.15207255072403   -0.04005544547983
O           3.14080988777239    0.93168947099065   -1.35849625515582
H           2.66985602637290    0.22947072089554   -0.87061014340685
H           3.75486678404083    0.49584870531606   -1.95449052103720
H           1.64035189695844    1.26722981741836   -2.01181238099025
