    19
        -40.91484823
S          -0.17358629842124   -0.30248750296573   -0.70906496559622
O           0.90958843400134    0.63164452018236   -1.28394988124869
O          -1.20334350852170   -0.40920575426274   -1.69308133323509
O           0.42848072261511   -1.50708647824221   -0.22451594143509
O          -0.68876729963801    0.49046732694988    0.53162312095130
H          -1.25996131190100    1.21859804860026    0.18034890158903
O          -2.26919710450197   -2.10444229022320    0.29860487244606
H          -1.35075223597603   -2.38630011464981    0.30110300715817
H          -2.42494846097852   -1.73372501279014   -0.57354927629512
O           1.40242861174348   -0.71509587550763    2.14809497910588
H           0.63250466476608   -0.29968155127345    2.54467948662778
H           1.06165638649255   -1.22865244594248    1.39349634084100
O          -1.93997000973556    2.09993872518658   -1.08363507622550
H          -1.34802541735437    2.69760959847676   -1.54735608010755
H          -1.98303441985616    1.28478218834418   -1.61019063168245
O           2.71968492406821    0.83335282747842    0.48354273812736
H           2.30745944890599    0.32507882598477    1.23185830858261
H           3.50419453460629    0.34325732813184    0.22552086543273
H           1.67558834917031    0.76194764777358   -0.61352941472464
