    19
        -40.92021768
S          -0.98227544485530   -0.36380167362560    0.18351142755939
O          -2.20842079353761   -1.30099950986418    0.12105225896483
O          -1.41752882311717    0.95108877452817    0.53372411085574
O          -0.00564604581152   -0.94743594352264    1.08643168405149
O          -0.43807799692368   -0.39898204861352   -1.23257362544224
H           0.34250999973091    0.34931765935473   -1.39976238899506
O           2.29392244219780    0.42239613505413    0.85106022537490
H           3.00730871082349   -0.21671221359384    0.90218128195258
H           1.47432282196849   -0.05351799214438    1.08511010420580
O           1.30659551157170    1.33127431728152   -1.44139240041575
H           0.80263977703136    2.14953051416140   -1.20788865921214
H           1.84663928561586    1.11784552338445   -0.64534964880267
O          -0.37379862317014    3.17240036242838   -0.55901950785658
H          -0.80681973097620    2.48475301553018   -0.01808554544690
H          -1.05671863927888    3.54164800070696   -1.12209747399990
O          -0.75672721289754   -3.41825655453913    0.55093823033574
H          -1.84270587378903   -2.22026516659644    0.13149881464054
H          -0.19397082421483   -2.67754508434889    0.84694287922829
H          -0.99124851036536   -3.92273810558039    1.33371823300109
