    19
        -40.91520713
S           0.82384321993784    0.88766260442945   -0.30102242551702
O           0.44467196718595   -0.44576355099347   -0.72773516606318
O           2.36251141771325    1.02318599200779   -0.47622223820826
O           0.14917839697559    1.95257331178673   -0.96853140615666
O           0.63927276282217    1.01189357316513    1.20472812288361
H           0.43256757316643    0.06313355002179    1.59588444837512
O          -2.26908360532258    0.83750294835901   -0.57186960714342
H          -2.25929395134161    0.20086295518236   -1.28981934907499
H          -1.49608585561520    1.40991472156304   -0.71689659686651
O          -2.50606243029009   -0.39175762122665    1.82004243087458
H          -2.50142508427634    0.05575999657268    0.94690891670872
H          -2.68270555577369    0.29294742734517    2.46748159576916
O          -0.04210298196093   -1.30689565291949    1.81485528293748
H          -1.00668152213318   -1.11128027438099    1.94706439043277
H           0.03900491706729   -1.57296470824049    0.88866626102278
O           2.54244000164730   -0.81534567141877   -2.31945610907340
H           3.04933161277547   -1.60053039691547   -2.09772694849941
H           1.64056709180653   -0.94841427674798   -1.97691130643696
H           2.64005202560646    0.45751508240847   -1.23944030597627
