    19
        -40.91146961
S          -0.15891424448150    0.98566360883974    0.54990010693313
O          -0.81830179419648    1.47531571427375   -0.67062319320233
O          -1.03103518331702    0.08514758012560    1.27147865537712
O           1.14812566348546    0.43977429832581    0.26368032070296
O           0.06395262358555    2.26276529265873    1.45185357724581
H          -0.81428545510792    2.60235878237471    1.59815632991505
O           1.56668044084442   -0.83214805163295   -1.98220113439389
H           1.58533050977266   -0.29043593715470   -1.15715831522674
H           1.84489360861767   -1.71499353938434   -1.72688535378714
O          -1.58631182350554   -1.90764184731214   -0.27424840247970
H          -2.49169671500457   -2.17251421223379   -0.09841468719821
H          -1.35515878312036   -1.23459570845834    0.42157022647321
O           1.80427456089879    0.40965958309869    2.94869653011712
H           1.67172593291437    0.30044675535067    1.99898084306850
H           1.61143378697494    1.33086414208992    3.13191719461338
O          -0.92022540947295   -0.43796383909380   -2.22203468519744
H          -0.93233429279782    0.46818559493012   -1.65562965353049
H           0.08983312198591   -0.64228538117061   -2.30408980655743
H          -1.27798656636014   -1.12760281089878   -1.54494854175480
