    19
        -40.92096384
S           0.52362855723272    0.79130229373717   -0.05745224675569
O           1.32579629306355    1.92589505280027   -0.39296809038100
O          -0.84818174893690    1.04880990699510    0.29656473951492
O           0.59175046242302   -0.22269335580677   -1.18047812311311
O           1.16565059282472    0.06568332482512    1.17439018927476
H           2.14338267291180    0.17139957311341    1.05499356925618
O           3.54960832989695    0.83184191984754    0.50145686810586
H           4.03660117819856    1.41100565604251    1.09318852767708
H           2.99023051135656    1.40510460591144   -0.05684664903192
O          -1.29145748164732   -1.25027187344378    1.67152066802442
H          -1.30139869201186   -0.32349296479461    1.37899840697392
H          -0.46260744302085   -1.36453257020395    2.14236472683222
O          -2.77874898485009    0.21446348720880   -1.44802406176270
H          -2.24468004709043    0.66727413678762   -0.77283333633486
H          -2.73005870291700    0.74843949972876   -2.24243896279265
O          -1.21940912180815   -1.88557096238854   -0.90604284332740
H          -1.32767966913989   -1.89476379609678    0.07486587832136
H          -1.96436090333140   -1.33721621967212   -1.23679514859078
H          -0.15806580316862   -1.00267771457654   -1.09446408188792
