    19
        -40.91520712
S          -1.22865264588602    0.08072746338701    0.20379806158247
O          -2.48202595576397    0.65770019665932   -0.51219654654408
O          -0.10760318737368    0.95151042130852   -0.09428255039834
O          -1.49192788974645   -0.11485406560201    1.59203821662008
O          -1.02835885418536   -1.26113727945656   -0.48629307380107
H          -0.21118633376477   -1.18460768561101   -1.13608475752659
O           1.08440115890102   -0.68173299814504    2.13029108114949
H           1.42792181508434    0.21319461443865    2.17412866877155
H           0.11665087429358   -0.59075271733151    2.09241340105920
O           2.30200107244660   -2.10033093672190    0.18260630771088
H           2.04574471461864   -3.01608432772508    0.30477399504609
H           1.91914368579582   -1.60845007009776    0.94033779139655
O           1.06707218406631   -0.85044743396222   -1.77227129057057
H           1.67009269722438   -1.36653869699357   -1.17548721711925
H           1.09291657945107    0.05642755701691   -1.43741331167421
O          -1.58050096716396    3.10469037538789   -0.60865379446660
H          -1.41918143251289    3.47063259216016   -1.48198661702279
H          -2.38900012526990    1.64197964035927   -0.55798922545773
H          -0.78750740022375    2.59807337093068   -0.35772914876483
