    19
        -40.91483115
S           0.76105503993707    0.80149055426818    0.98929971814147
O           1.47241942818793   -0.01203326498146    0.06236205898160
O          -0.50157285491319    1.33100652496841    0.54376306368495
O           0.59242447161459    0.08989731800559    2.32418356064462
O           1.66652928226950    2.02303720676498    1.37094129166610
H           1.13834380920377    2.62933732629792    1.88679157601066
O          -1.41148944796675   -1.24379882832533   -0.04718823008065
H          -0.97440968193352   -1.26617834107859   -0.93498613567534
H          -1.41377649019715   -0.31423008822141    0.21087299736750
O           0.09485794011049   -0.88109000762030   -2.20177905863866
H          -0.24955034732969   -0.01397726345958   -2.47960674639061
H           0.85524145916628   -0.67492361440077   -1.64241399047239
O          -0.94662738371707    1.66156990259342   -2.14580538293075
H          -0.79288433880254    1.66226151608148   -1.18685660247445
H          -1.88885190665306    1.78964689219533   -2.27222171369527
O           0.37318856319181   -2.24552207408912    1.52964689512253
H          -0.41589894188734   -2.04366712592391    0.94126883151350
H           1.12424423633291   -2.34540423124869    0.93576691692043
H           0.51675718142355   -0.94742237923583    2.11596093026117
