    19
        -40.91520700
S           0.48346117399074    1.08803046304521    0.37363226570724
O           1.87090588100046    1.78857168236585    0.40215875481304
O           0.69917399718585   -0.33218026265322    0.57439515889500
O          -0.40593962685730    1.70353214292481    1.30370445870441
O           0.00593434195085    1.33395669879407   -1.05036456279536
H           0.09310176757751    0.44168449282567   -1.59124619253318
O          -2.28413721481587   -0.19513921283680    0.96827578059112
H          -1.92448013415226   -0.86837330809314    1.54985786726119
H          -1.75760432164907    0.60582469787416    1.13460004400351
O           0.11971272964456   -0.96122920679824   -2.01551904215968
H          -0.85684937410084   -1.14084608130947   -2.00003360237487
H           0.45381007988884   -1.29736342017518   -1.17250998195980
O          -2.46796223817746   -1.08712837163849   -1.57283120409084
H          -2.47464262220835   -0.79460944707858   -0.63628868259764
H          -2.99262100653926   -0.44524750333786   -2.05444314588662
O           3.03248001108384   -0.06797307161127    1.82167688375361
H           2.19616122963032   -0.49378961619641    1.56146838764663
H           3.74347889489311   -0.55529379796349    1.39793860498282
H           2.46601644165902    1.27757311188006    1.00552820805203
