    19
        -40.92071437
S           0.24673879171715    1.22177551425563    0.80235009620801
O          -0.53172974886419    1.37963904785908    2.00921208590935
O           1.07105391443385   -0.00253903261638    0.84253628505389
O          -0.53339000335803    1.26778934170724   -0.41269393366869
O           1.27051685388626    2.42441624508057    0.75821039046743
H           1.44332081576830    2.61104324618847    1.67663824633728
O          -0.41754820921335   -0.78300182235294   -2.05123655966409
H           0.55335926395317   -0.83288065286523   -2.18016305142938
H          -0.55513965226118    0.11941837045980   -1.68101481842641
O           2.18729685196653   -0.64619829453103   -1.51010237149349
H           2.90550627829327   -1.26301553388560   -1.36133429988706
H           1.91520752721184   -0.31628762269233   -0.63068655443813
O          -2.42256860649902   -0.20778239657004    1.13954411300609
H          -2.76208410008389    0.31591336703089    0.40780872488907
H          -1.82298530856841    0.40067573413024    1.63293710523488
O          -0.62789333318059   -1.75108625870373    0.21665145393520
H           0.14336356860171   -1.18050323502108    0.58118912751377
H          -1.45870374528545   -1.28375618633526    0.60690000619263
H          -0.60432114867896   -1.47361982116570   -0.84674603589397
