    19
        -40.91520659
S          -0.34066287795071   -1.13941399092553   -0.37724108828284
O          -0.61748593123925    0.24758973973956   -0.69845145716804
O          -1.65707805121534   -1.94362659801300   -0.57164210896425
O           0.72226225021293   -1.73353293347959   -1.12020303142882
O          -0.07615498544237   -1.27377113960646    1.11555378272450
H          -0.31465544893627   -0.36624613936345    1.58007460871562
O          -0.51128996380281    1.04966339737516    1.90613554120489
H           0.43919953335557    1.30707640575627    2.03365706443923
H          -0.72730335281007    1.31407678561802    1.00136906345290
O           2.09850933459282    1.36251814694041    1.86972732389779
H           2.27641362054622    1.01761157400366    0.96873326689529
H           2.58455681236036    0.79552482485733    2.47100992239122
O           2.39151541233044    0.31490925279508   -0.60217648816461
H           1.95390899693366   -0.53066273674355   -0.80127030914376
H           2.09238614366094    0.92776421580026   -1.27731983014768
O          -2.69517073475753   -0.26366677460895   -2.27861462170693
H          -2.17988363370915   -1.51544219181377   -1.29436983652408
H          -3.49640296358949    0.19055064000412   -2.00600065508992
H          -1.94266417053829    0.23907750166907   -1.91897114709571
