    19
        -40.92122721
S          -0.68040291661787   -0.55924661461604   -0.68383922805898
O          -1.71223779810416   -0.03431794413268   -1.51954076787830
O          -0.69762860829888   -2.08141735927112   -0.71995474886711
O           0.64464532590340   -0.06098882834603   -0.97376893574871
O          -0.98529681481881   -0.25520645783950    0.80895761712726
H          -1.04002864238115    0.74905403171883    0.92198053954884
O          -1.06477181752890    2.29497128196689    0.85798154239699
H          -0.81542196773767    2.48412123271965   -0.08628360911714
H          -1.95627537036496    2.63253185177897    0.97260455059672
O           1.97115448999346   -0.41578825685665    1.29730762583163
H           1.43278855627874    0.05368227484080    1.93848949753847
H           1.63214929463305   -0.15878537070127    0.41587556279627
O          -0.52168744630203    2.36978315693242   -1.71169368781879
H           0.35778708457461    1.98403783503912   -1.78627770388619
H          -1.12590683817004    1.63349355210823   -1.91007961801146
O           1.16205573776320   -2.87352799313692    0.82203425098235
H           0.01055663334384   -2.45462508828911   -0.08328405823116
H           1.84940609664909   -3.29655518189315    0.30179132245932
H           1.53911499122304   -2.01121610197878    1.13769985843659
