    19
        -40.91520711
S           1.13523686422105   -0.17502410469005    0.48914711777742
O           1.82705090634680   -0.05269218346523    1.87585844900617
O           0.12939885898368    0.86638905321697    0.40166864624942
O           2.10637360312617   -0.16933949943270   -0.55571346074570
O           0.45497717727289   -1.53436706825162    0.56565756238510
H          -0.57381348119805   -1.38707753603192    0.69213142982186
O          -2.00023638293586   -1.42727166512939   -1.92719726133843
H          -1.80923275660513   -2.33968373433293   -2.15138198181058
H          -1.21435648629886   -0.90966864413462   -2.20519039395198
O          -1.94964253861562   -0.88278014854622    0.64359298583450
H          -2.16418315765129   -1.12372260634868   -0.29559747936845
H          -1.69609193408150    0.05002731342867    0.61570443029514
O           0.22719038504988   -0.00449865872079   -2.47637822288533
H           1.01300330891847   -0.15252187207966   -1.92237167934142
H           0.05551045611867    0.93885456088405   -2.43717584774339
O           1.26239701294840    2.47595305258700    2.18941696621406
H           1.81878489903811    0.89920087846748    2.14611366033917
H           0.69995455913707    2.22634669071011    1.43454584960170
H           0.67767869622575    2.70187616186050    2.91716921965458
