    19
        -40.90906089
S           0.50603051611532    1.39928531304172   -0.78198595865701
O           1.76029377245939    0.95832206702020   -1.53438493913542
O          -0.63705306532306    0.66213268781364   -1.26101701478343
O           0.72078824675247    1.40734277464195    0.61935067548931
O           0.33181510278191    2.88125918583415   -1.27858667565712
H           0.12345077035921    2.85729923358334   -2.21111155050278
O          -1.12604125541054   -1.54724831349565    1.99845579367272
H          -1.69111218899892   -0.84095460414200    1.62908074622739
H          -1.71453452217857   -2.22122061287116    2.34258043068759
O          -2.64751717008340    0.15151844584670    0.49894208560564
H          -1.93732124939861    0.43142544800833   -0.10428808652317
H          -3.33429965239064   -0.22543170771174   -0.05520058157489
O           0.40915168062304   -1.71837331154311   -0.20935223354790
H          -0.04886712682464   -1.04935352127862   -0.73297392064609
H          -0.07156651737864   -1.75946497257530    0.64503237111378
O           2.68551114643427   -0.53228144541952    0.21944430345074
H           2.29359780459913    0.32897342959733   -0.87336558867950
H           2.43725034572762    0.00325837704508    0.98297270453677
H           1.94042336211033   -1.18648847339478    0.10640743889272
