    19
        -40.92453851
S          -0.49629623510216   -0.91815973595386    1.11032484065490
O           0.76561895086620   -1.47013259589356    0.63105246554636
O          -0.29565949130528    0.40592995503129    1.68918048392793
O          -1.52847826053124   -0.92973422953886    0.09520443813038
O          -1.00277047504518   -1.85849941491410    2.27398246578890
H          -0.30912850317016   -1.83745268041522    2.92696961715145
O           0.58925392850177    1.28342342495952   -1.65183250214507
H          -0.33911618573087    1.53853633581566   -1.24128626426151
H           1.24187369142999    1.28323599295604   -0.83494141723185
O          -1.58850002427258    1.61380924782576   -0.42634638849767
H          -1.77770203479035    0.65357897866489   -0.28647313563511
H          -1.35570393455905    1.92785721664235    0.45552456678347
O           1.91003334364643    1.02579802792157    0.47797497041541
H           2.29159090367907    0.14079036280525    0.44222509732315
H           1.12344537435477    0.91616267450544    1.07093843002136
O           0.30847079833758   -1.20766185204661   -1.91528989554910
H           0.50199414841717    0.27248481429205   -1.90941218375170
H           0.60030873763635   -1.45458647375810   -1.00226434392364
H          -0.63923473231152   -1.38538006890609   -1.90553125475041
