    19
        -40.92022165
S          -0.75442091135630    0.03617452956862   -0.53353984263820
O          -0.57597857988865    0.33133955242350    0.86916307136919
O           0.47930842969585   -0.25047855315107   -1.21934653460422
O          -1.71542312713114   -1.14407069446523   -0.71208802580697
O          -1.50699310481992    1.18956802623007   -1.19639866344242
H          -1.23913548194585    2.05448725156741   -0.71283746618308
O           1.78896628934632    1.96065178434248   -0.41591972787339
H           2.36160771082803    1.66244956297433    0.29401259599762
H           1.44733363146054    1.15536847871660   -0.84462684324208
O           0.51356924926975   -1.96564806062304    1.72741358398936
H           0.18118638626754   -1.07037808782667    1.52347239163202
H           0.01074988647440   -2.27576477570824    2.48357682979571
O          -0.56255756107797    3.05802070829162    0.22240853408550
H          -0.68557081925557    2.59009837114204    1.05607162717304
H           0.37420876983572    2.89660089383832   -0.03264542153535
O           0.04093255551552   -2.96374395879993   -0.70851241325405
H           0.32204957290061   -2.80934577324323    0.22156657486259
H          -1.14130866267873   -1.99246320134325   -0.77093669229146
H           0.66147577659703   -2.46286602432648   -1.25083358784848
