    19
        -40.92161567
S           0.82836678764741   -0.52710520620324   -0.41838739565935
O           0.23549567261577   -0.76363087350649    0.97067313757230
O          -0.03462585014015   -1.14036452417096   -1.40136578886613
O           1.09692551960199    0.86270424134589   -0.63216761467964
O           2.16135730601175   -1.30095511291184   -0.35189171491635
H           1.88759790950800   -2.24895472148455   -0.26424779097066
O           0.39555796080429    2.76894569543935    1.14548244180019
H           0.80044359714171    2.14738371075632    0.51326754876700
H           0.63257083081272    3.65185536617962    0.85773473706049
O           0.69182993739015   -3.43885786947326   -0.19304431850013
H           0.24508631806225   -3.37563258049513    0.65591107523029
H           0.15991695354275   -2.92762510929692   -0.82409201324665
O          -1.73673812338726    0.95792802783832   -1.32358107479761
H          -1.29638045787868    0.11513957178653   -1.52474348601385
H          -1.13837110481479    1.63909609763742   -1.64073548297913
O          -1.53710911727592    0.92613964133411    1.33228701407864
H          -1.84581131541920    0.99741866292685    0.39787822357845
H          -0.55506142506530   -0.06584398453178    1.20931841540528
H          -0.99105139918590    1.72235895698329    1.49170407692699
