    19
        -40.91483126
S           0.91398191306946   -0.76391340338395   -0.88386322902422
O          -0.46037948501726   -1.18942098851318   -0.82806967926839
O           1.14529975501735    0.11124602014948   -2.10767716029219
O           1.43817428800016   -0.15121354127510    0.28956815055533
O           1.77859576553613   -2.03074255895077   -1.20843973486933
H           1.35253731562455   -2.49949499004039   -1.92357834412490
O          -1.27171871197462    1.38493677691283   -0.11029222833349
H          -1.06785712721767    1.25324379019375    0.84933735654894
H          -1.28686235085199    0.49809254900292   -0.48995801306254
O          -1.58389694895740   -1.78026344216786    1.60704483101078
H          -2.53531512560650   -1.81319060113023    1.48896368409912
H          -1.19791872501389   -1.68613127180793    0.72080731100784
O          -0.38244842143771    0.60191532404574    2.26427592669478
H          -0.85590899818211   -0.24641393427324    2.32740961151350
H           0.47360508744804    0.37658547434162    1.87708614803016
O           0.92488100450574    2.34872126109358   -1.06904455758418
H           1.51094263410311    2.29479112224796   -0.30722303879706
H           1.10362229792501    1.11933936249749   -1.78002923195769
H           0.00066583299449    2.17191306102987   -0.71631781216177
