    19
        -40.92453829
S           0.03183837277378   -0.70772378575689   -1.34892260376283
O           0.05697505877063    0.72546248340095   -1.61765882623841
O           1.21986888559905   -1.11634944542696   -0.60751462203514
O          -1.19518852925960   -1.13119939612001   -0.70762194323423
O           0.08303386582951   -1.44270005602616   -2.74603505311147
H           0.88795232402564   -1.13855311126615   -3.15525323474343
O           1.83254011100183    1.17697815170085    0.43279290720136
H           1.78373503648321    0.25918802862759    0.06184247425749
H           1.53851454268489    1.73219863458499   -0.29888048150971
O          -0.25970408566665   -1.55999648356949    1.67697154700157
H          -0.75941501249938   -1.55399069567551    0.82389815559534
H           0.62704079123480   -1.83599992584776    1.41617667389056
O          -1.78539727804249    1.42148172253593    0.08028515610552
H          -2.35036155888227    0.64456476341767   -0.00449359583063
H          -1.13919261031775    1.31982736935121   -0.66249852932665
O          -0.16470893109906    0.94379246330717    1.95072558160324
H          -0.22205261335038   -0.10064912762262    1.99112231031792
H           0.72694444357030    1.13463910176645    1.43938215528947
H          -0.91242281290150    1.22902929861316    1.27568192853763
