    19
        -40.91520706
S           0.67092234999619   -0.98294612766419    0.38249960667175
O           1.36437768902532   -0.49436934545308   -0.88134457708102
O           1.43205987050189   -0.61926613648908    1.53280871713180
O          -0.70669166488153   -0.52867366176634    0.38583056656573
O           0.66211952138671   -2.52673894069809    0.20147942411289
H          -0.16699046866004   -2.88433423588963    0.60695588339793
O           0.44413666739029    2.87414703816106   -1.13792225449677
H           0.52391093523285    2.61873917426146   -0.19386709456799
H           1.33147883761648    3.09044218635187   -1.42960364772513
O           0.65340817868141    1.95378041756561    1.39098648819753
H          -0.21057416063697    1.86920669260678    1.79988896408517
H           1.09574818400989    1.09871036795899    1.53070871688176
O          -1.75248560311220   -2.85555743998582    1.13422158784639
H          -2.41028563974083   -3.18687614071209    0.51769145660207
H          -1.70398714477807   -1.89045712843067    1.01273345784169
O          -0.51563122156299    0.61715265755210   -2.08246052583307
H          -0.24041366744569    1.55129233852665   -1.88768740796456
H           0.64523906090816   -0.07787412197141   -1.51811054576178
H          -1.11634171744956    0.37362242642657   -1.36480879185737
