    19
        -40.92044377
S           0.94476660388162   -0.74835925107810   -1.04647147613233
O           1.29360856463400    0.66883696407154   -1.11947106604927
O           1.48291531745032   -1.36829239057478    0.14852605651636
O          -0.48436063216755   -0.95195063425030   -1.20807779131891
O           1.63167561924591   -1.46443453207983   -2.27957838867472
H           2.53833025376250   -1.56546608122993   -2.00559831530102
O           1.38751591551887    0.76682309088109    1.59943643117943
H           1.70340666428235    1.31027149399051    0.86526398832667
H           1.48311126755943   -0.15501019935108    1.24559901080891
O          -1.05969052792268    1.70525239015387   -0.93049397394534
H          -1.53302717041790    1.00035868628419   -1.38731101406240
H          -0.10686885417646    1.47469273124521   -1.09371427062949
O          -1.71828890047597   -1.32906392398875    1.03284721202371
H          -2.60481523401843   -1.63313606233628    0.82940404727997
H          -1.20710064281192   -1.34639178589114    0.18216864378582
O          -1.09752826893695    1.08153730015058    1.50920913956674
H          -1.16391662660377    1.44766127504010    0.52634488043128
H          -1.43327116577699    0.11279124505088    1.45395290396435
H          -0.05646218302443    0.99387969391144    1.67796397223059
