    19
        -40.91893414
S           0.02018293978040   -1.01018853562341    1.41111209056471
O           0.93802736901275    0.10796239168454    1.31517158731813
O          -1.20921574180433   -0.73406349129874    2.11021907896716
O          -0.21674131543081   -1.61364620836054    0.09088810392572
O           0.77593531214538   -2.12246002069088    2.25468293004240
H           0.06136624129354   -2.63102605112556    2.62581868471348
O          -1.59069766495933    1.13957365365127   -1.82145903045610
H          -1.55113038207855    1.37627405102930   -0.85576763242691
H          -2.43273645035229    0.69960307379186   -1.95369407312945
O          -1.38390999376274    1.52879249135952    0.76352100847020
H          -1.51840919869340    0.72208957270133    1.30132156770129
H          -0.49692392288900    1.82027470892318    0.99515724331653
O           2.27919366246734    0.79495353612047   -0.79218270976521
H           1.84004766254478    0.61543385847201    0.07919721855112
H           3.14660031415381    0.38875938512177   -0.74567609536435
O           0.39174501126937   -0.42296841526515   -1.97401260487408
H           0.14287416654922   -1.01506545951584   -1.11755830052029
H          -0.40094007225307    0.24155352858526   -2.03098408418998
H           1.20473206300946    0.11414793043771   -1.65575496284363
