    19
        -40.91346171
S          -1.05933738475753   -1.16307856951033   -1.31133179173092
O          -1.68191090994161    0.19525375085761   -1.59073980307069
O           0.02110404909278   -1.42881257895389   -2.20897560628571
O          -0.75382803966517   -1.30483236021134    0.08547755956990
O          -2.23968886050524   -2.14353837607256   -1.64189156649534
H          -2.31639299292494   -2.18048293327865   -2.59327560656158
O          -0.78051504223637    0.77465031671359    1.96991252525696
H           0.11983782848836    0.70839499875716    2.34092626026586
H          -0.97437630023341   -0.09676502315347    1.59790768823585
O           1.93624685261683    0.64745857710230    2.34762019661431
H           2.10123109317273    0.30334659987855    1.45834219933868
H           2.42297990547852    1.46977618020420    2.42421794782766
O           1.66265477720675   -0.18045175890397   -0.32462771437822
H           0.91806958497413   -0.73534531664468   -0.03073229120950
H           1.89166708414500   -0.52847986345706   -1.19173771685044
O          -0.24225085169261    1.78103640464460   -0.36283515432708
H          -0.53699620599454    1.58607552863813    0.57742706739227
H           0.61838120880410    1.32742519556052   -0.44699137399859
H          -1.10687579562440    0.96836920731757   -1.09869280922302
