    19
        -40.91955067
S           1.14265881068523    0.02571571482667   -0.23482538314396
O           0.28144833714541   -0.22516598043275   -1.36732294674478
O           1.08613446019520    1.34524420783886    0.30037950917936
O           0.83725525286720   -1.02268293152745    0.85139832838400
O           2.59405763347889   -0.32916526142673   -0.61542961499565
H           2.51672147014635   -1.23167605604231   -1.01614229984536
O          -2.02569010501846    1.21100054872937   -1.37766248673572
H          -1.96561198480731    1.82731168395784   -2.10981852244907
H          -1.24592376249497    0.63150593933080   -1.44289325928813
O           1.61123519674334   -2.55363464087357   -1.52584092951653
H           0.89493306376436   -1.94753845697805   -1.77596494827161
H           1.30064733590610   -3.04220500454513   -0.75846229469212
O          -1.42810628399837    1.99890777834712    1.13949095592261
H          -0.48863340415595    2.08869440610838    0.91357545072393
H          -1.87018238455217    1.80960663241677    0.28780313254784
O          -1.10305489286954   -0.29864183650119    2.26097342667763
H          -0.80523848573830   -0.12680165101608    3.15747382102009
H          -1.35198979222975    0.59898706817366    1.86967728901578
H           0.01933953494361   -0.75946215040020    1.44359077216002
