    19
        -40.91535438
S          -1.06140341292085    1.40464453546407    0.95570033486574
O          -1.66115709526382    1.53128117566051   -0.43434599015672
O          -1.45892055088105    0.17382570869417    1.57185988997554
O           0.34513743264394    1.67617453567318    0.92843017330749
O          -1.76052484432084    2.58186732078314    1.72257938581622
H          -2.64470885630730    2.27497933105455    1.90943237325504
O           1.91565697631871    0.44733151514501   -0.78149434653178
H           1.40943150509882    0.92015619882618   -0.08190558807149
H           2.63263273593342    1.03262299594072   -1.03256904166877
O          -0.82436462910996   -1.99799271114261    0.04855397717523
H           0.10386360479917   -2.19477737540151    0.28177677756828
H          -1.14956487808001   -1.39745231424775    0.73940898258711
O           1.89247962684217   -2.11423828713349    0.28876341255527
H           2.03112210804920   -1.21012751541344   -0.03982103195765
H           2.32345427354749   -2.70539934615880   -0.33090747290631
O          -0.54968748179755   -0.20354069117979   -1.78122657482653
H          -0.72292975390241   -1.00778986361044   -1.19554579483427
H          -1.21759126569456    0.78810979523458   -1.10032399707632
H           0.39707452548122    0.00032498143366   -1.66836547912856
