    19
        -40.92122928
S           0.74804297861275    0.28214860618199   -0.79764733943689
O           0.29786003990187   -1.04430256962314   -0.44303870436945
O          -0.04577379333433    1.30014868397057    0.06659809739801
O           2.15272828214304    0.49354305797857   -0.65243212374132
O           0.30527914220207    0.63635530226945   -2.21089921054045
H          -0.70984651707558    0.54199268328203   -2.28924319421931
O          -2.27038365575916   -0.72668490256571    0.14163113165715
H          -1.34337724695537   -1.01735415985837    0.02237794225789
H          -2.25767964715442   -0.07151320195035    0.84294915932975
O           2.31003364988443   -1.11594664582371    1.49741914969517
H           1.71611335941608   -1.77231743600110    1.11783339764349
H           2.58903045387758   -0.57437610319772    0.73863862919527
O          -2.20900343350790    0.26642813873671   -2.29483770445710
H          -2.39246041708830   -0.06776526668769   -1.37853933226013
H          -2.40647609120492   -0.45847895466408   -2.89280727641964
O           0.71881018066133    0.75012671612783    2.43895219780718
H           1.27151881264179    1.43819379335476    2.81703895817943
H           0.20169361131415    1.15388378680774    1.03671847024216
H           1.32389030142843   -0.01408152830484    2.23928772203681
