    19
        -40.91346208
S           0.54228461618306   -1.67103828827659   -1.05242292634453
O           1.07214097570818   -1.05492470901361    0.13256081456947
O          -0.68778349970964   -2.37947558675203   -0.88164880321396
O           0.44074237059984   -0.66132753975946   -2.18394961183012
O           1.62492365299481   -2.67025986067939   -1.59436007833074
H           1.20099524494750   -3.21169141873011   -2.25729018595607
O          -0.52530253208836    1.77647622292082    2.50036079971861
H          -1.00136023612718    1.01183256382202    2.14649398593289
H          -1.14257132964510    2.50991016983626    2.51082650852006
O          -1.41846757414073   -0.33837381230169    0.87870884687783
H          -0.49528685071694   -0.64736183479797    0.84684611196996
H          -1.93335938778643   -1.09461097549920    0.58132067557934
O           1.37805860550472    1.70758496397063    0.52309098812467
H           0.88198906873295    1.84019365307001    1.35322169984825
H           1.62742826248097    0.77321812941480    0.51411825743171
O          -0.58683121059786    1.32057818767649   -1.12988400507225
H           0.19679312051745    1.65594985453899   -0.59822913283394
H          -0.01555617627872    0.24960610054792   -1.81980991891659
H          -1.15883713058967    0.88371417998783   -0.46995403609454
