    19
        -40.92045297
S          -0.85584986077913   -0.56707167936515    1.22621022104800
O          -1.64296071620887   -1.14036328882089    0.15082945906870
O           0.54363322321574   -0.97823090655028    1.15570504334645
O          -0.97482031898047    0.87886306119662    1.31264018059983
O          -1.45125852981939   -1.16004462519446    2.56811384755698
H          -1.86082592752383   -1.97133444808820    2.28315516205233
O           1.29734889401827   -1.49142453054435   -1.25615593703643
H           0.95291221470068   -1.43134348858850   -0.32449553497577
H           2.17268318775208   -1.87986104231833   -1.20347309218196
O           1.43023868613798    1.57326394607420    0.68610174018301
H           1.85835687092924    0.79193253641572    1.05580521066216
H           0.50268053754228    1.49712927453628    1.02979317943038
O           0.89627805391569    0.96869271426661   -1.70137716998693
H           1.10868271735299   -0.03686512469700   -1.67825590896740
H           1.20046544211365    1.32287766749822   -0.76135754642779
O          -1.58473431319394    0.97273734973461   -1.34033169749097
H          -1.72176228461304    0.07268098154316   -0.94765519307132
H          -1.71020130140982    1.55957048664088   -0.58318222771919
H          -0.16086657883636    1.01879111820735   -1.67206973544906
