    19
        -40.91245749
S           0.07829557928016    0.48658593443531   -1.00785617514858
O           0.12249789887403   -0.79566259289168   -1.65538854305879
O          -1.02089812601311    0.54894634011205   -0.00330596568137
O           1.33872312034148    0.85754200749456   -0.37194036769610
O          -0.23391205299874    1.59814332246127   -2.05575694800002
H          -1.17030850724826    1.46148862508471   -2.31231757728681
O           1.78883092446578   -1.99601544670494    0.00216868740725
H           1.13600761211516   -1.69592465470572   -0.66826776466657
H           2.57940841294852   -1.48158163468037   -0.17826687833444
O          -2.80935641500775    1.02203212143418   -1.93482745644759
H          -3.40548963407737    1.72982440179751   -1.67828192907591
H          -2.42319643062874    0.66746377323071   -1.11483345788182
O           0.88177267826180   -1.48131085597497    2.39402614708791
H           1.28417334717126   -1.74807136081327    1.51848667700602
H           0.09092143638980   -2.01444285318657    2.49786410445233
O           0.43645673871996    0.95063504101161    1.91528321707567
H           0.63400855385431   -0.01990340672628    2.25356646838980
H           1.08666604267981    1.07572219022271    1.12398385326441
H          -0.39460115916983    0.83452904818839    1.27566388858069
