    19
        -40.91392440
S           0.79130556831000   -0.22030476015713    2.07893627352892
O           1.76553318048456    0.66711017732040    1.32725146785785
O           1.37960675183938   -0.71515964910973    3.26810586590682
O          -0.50869904528591    0.38108921346713    2.14508698352897
O           0.60883525184569   -1.46781439391842    1.08196215543631
H           1.38227719006316   -2.00935702045432    1.21941919920083
O          -1.86673893880106    1.06352338856439    0.02475826443051
H          -2.58347488722805    1.66078507379331    0.24468918489602
H          -1.45365276939971    0.79582875173536    0.87944536393082
O          -1.25465364433773   -1.39939660755872   -1.09755019182174
H          -0.79256369569489   -1.70493380449892   -0.30867332775781
H          -1.69737790282953   -0.57730926930467   -0.83401721689486
O           0.84821934019649   -0.42581588817616   -2.42362182649997
H           0.66275452975672   -0.31427119963236   -3.35701664088443
H           0.07558179025393   -0.90077917771718   -2.03654654121323
O           0.69754692282341    1.59470272317911   -0.71619646806145
H          -0.26565395412177    1.55491360513514   -0.55471319515566
H           1.32907232328364    1.10804021530382    0.46387460039291
H           0.88208195880440    0.90914860203679   -1.40519395085535
