    19
        -40.91833699
S           0.93650148860212   -0.10863416579268    0.34162423748583
O           0.19888896995001    0.94409853244590    0.98468302874333
O           2.15189218348761    0.26465073008853   -0.30798232321282
O           1.18309136057428   -1.26120297636639    1.31175024367248
O          -0.02461908229219   -0.76201091445455   -0.71258905103688
H          -0.41336722478645    0.04976158834662   -1.21060427933066
O          -0.76618743388836    1.46444935527024   -1.61828880893472
H           0.07252995354493    1.81297241914216   -2.00495847721629
H          -0.82805887346077    1.86052396315502   -0.74073188696112
O          -2.12936044877079   -1.92251976461041    0.67656581940246
H          -2.20578526207617   -2.86855210672353    0.53903440971113
H          -1.46102979451373   -1.59888581126531    0.05136040716511
O           1.73557038696151    2.07282103761183   -2.24365304017594
H           2.20275754557476    1.78417401336638   -3.03012766539985
H           2.05147961545985    1.50711407272413   -1.51247865625297
O          -0.83081666161318   -0.84890222571268    2.76426177829072
H          -0.79371038092197    0.08540146524237    2.51330578359224
H          -1.50851489234693   -1.25950387629452    2.18607003827974
H           0.42873856086101   -1.21575533608583    2.01275842255770
