    19
        -40.91865346
S           0.41488271313880    0.46203103322305    0.78800514910331
O           1.14873146624650   -0.62768449971800    0.00370822464447
O           0.21887474206148    1.59419182822566   -0.08709614233140
O          -0.76127632246692   -0.07761961035147    1.39292457075420
O           1.40640053546148    0.87928004270645    1.90325280030223
H           2.07067121784038    1.48627588657026    1.48625835215237
O          -0.25988464543255   -2.63038127877359    0.47336595130234
H          -0.77720992533392   -2.16639134195800    1.14442742074731
H           0.68128233406582   -1.54630595802465    0.18543527198789
O           2.63451250438132    2.60029404601790    0.38602009151611
H           1.81682676524750    2.43121205260418   -0.11598779689197
H           2.60620030226447    3.51923519590730    0.66437211181596
O          -2.10105284471453    0.49600007959552   -1.02111897708368
H          -2.45629039962998    0.38305617651924   -0.13444090842465
H          -1.29850417756823    1.02602093315628   -0.90005459901511
O          -1.59768779005191   -2.05786715676598   -1.72855478011602
H          -0.80540477158297   -2.59991371784625   -0.35436217530679
H          -1.86128887108226   -1.12848325106081   -1.55113131391159
H          -1.07978283292680   -2.04295046001841   -2.53502325122888
