    19
        -40.90302014
S          -0.35316829977952    0.77676676854726   -0.70513822121325
O          -1.15512539448835    1.55599233974486    0.17686071897744
O          -1.04467173457762   -0.09128952144510   -1.61848988287252
O           0.60287297879996    1.68630848947758   -1.50307136451206
O           0.64834367531265   -0.06249315345410    0.14313237142510
H           0.11912199103493   -0.38360269614843    0.93646188823801
O           1.60692682345606    0.52207474948255    2.92823065192769
H           2.22580072006696   -0.12099021408792    3.28075195424558
H           1.80980282690438    0.62530650842807    1.99286641555424
O          -1.47726244093665   -2.29800356998173    0.11491777480399
H          -1.48332695822462   -1.62955718672289   -0.57957806181764
H          -1.63418694326298   -1.84595998022812    0.94818591073146
O          -0.90079287584487   -0.25673863325526    2.18452513866037
H          -1.33054736505822    0.53650646341633    1.83068700842091
H          -0.21704266501731    0.05285645756968    2.80507134248844
O           0.90944273091275   -0.02664705011090   -3.41075149721853
H           0.61286583243714    0.22947519890420   -4.28801250747649
H           0.91953020092270    1.14735732427848   -2.28120362309786
H           0.14141690732609   -0.41736229443750   -2.95544604727423
