    19
        -40.90302022
S          -0.62893812550235   -0.62088531332052   -0.66416675578208
O           0.35224484579961   -1.02854105921148   -1.61252736341977
O          -1.54483487392257    0.40751499943595   -1.07588908334767
O          -1.43238929938329   -1.83982208406379   -0.16822198175640
O           0.09559647574795   -0.17174406116208    0.63970620203049
H           0.90048864975577    0.34660284531587    0.32956763524440
O           2.21925672646282    0.64002797417259   -0.55858702168012
H           1.94513515891655    0.04392271459198   -1.27177915809431
H           2.81088294114629    0.12580598745759    0.01944146975359
O           0.07047518304594    2.67936351247503   -0.53389164712170
H           0.93916971950049    2.34524462506201   -0.77271282029688
H          -0.57849119237770    2.03572830878138   -0.84008202369026
O           2.84359575042992   -0.96661705159972    1.55690463741563
H           3.11376412789175   -0.57938760434191    2.39231844124929
H           1.90518923976695   -1.16867752074902    1.63006649383243
O          -3.46513627608927   -0.42158832442889    0.55429481982433
H          -2.98200877308377    0.23605070224525    0.02132874983328
H          -4.29932940234636   -0.58479721417818    0.10642905939818
H          -2.26467086575306   -1.47820142646801    0.24780033659757
