    19
        -40.91893371
S          -0.96935020151204    0.12439541068254   -0.43311825683164
O          -0.24389924387154    0.10804756871983   -1.65775087964077
O          -1.18533539147673    1.40042529374308    0.19813121900881
O          -2.33645505093899   -0.57348790174872   -0.64994380151434
O          -0.27412025940680   -0.77748149686753    0.60942948607940
H           0.51450604797649   -1.31702464685850    0.17919175231907
O           2.49272560932847    0.32062253038423   -1.46502139210479
H           2.40076271358768    0.91552093398293   -0.69853231994976
H           1.67121996757459    0.44260700879784   -1.96076143605446
O           1.62159399495858   -1.93910844145549   -0.53607773504037
H           2.11412333981917   -1.12847267066921   -0.87404848651570
H           1.25846732901550   -2.36375650174988   -1.31739338676900
O           1.48991380925342    1.62849738103854    0.71251885148484
H           1.53411938110117    1.10665700927034    1.51647449421944
H           0.54980656767680    1.77277584019462    0.52671882187636
O          -2.95927405763789    0.15215180476240    1.77315770532021
H          -2.41535862572731   -0.34116813650661    2.39260332947518
H          -2.43413784946219    0.91772091722105    1.48599837362243
H          -2.82930809022342   -0.44892192291347    0.19842366103794
