    19
        -40.90302024
S           0.49507548431752   -0.75752602985854    0.63985943237869
O          -0.69194729588466   -1.28352357496218    1.25662369986053
O           1.31268311546769    0.09387331018257    1.43650794367987
O           1.32846487757874   -1.92597125651436    0.07637183516293
O           0.10376347400728    0.00384605843784   -0.66182391116785
H          -0.10195887906326    0.94325646341399   -0.36672196550451
O           1.54313143415297    2.32336768289412   -1.91445362847315
H           1.44398615363223    1.36588654819369   -1.92430750488595
H           1.13909592061075    2.65606088498469   -2.71871139515340
O           0.14382015763775    2.33145767803456    0.42895638070906
H           0.72258079043619    2.70658278397926   -0.25856291084587
H           0.72689025984672    1.92218202651995    1.08587160293620
O          -2.42816528570270    0.92273749887712    0.83875924480094
H          -1.97228591480864    0.12347916036575    1.12610339426672
H          -1.81953568425170    1.65695293829023    0.95726660195540
O          -0.72970065616495   -3.44320467229509   -0.28217474702665
H           0.67542847712344   -2.62188703999131   -0.21621645548524
H          -0.76608460271147   -4.26429105131297    0.21542638794406
H          -1.12524184624721   -2.75327940930291    0.28122598484333
