    19
        -40.92096394
S           0.23389481805745    0.71995279460539    0.57515485866128
O           0.68304653968198    1.90990574571556    1.22744266138466
O          -1.18947148825575    0.55886729387747    0.42799241464827
O           0.91525786283677    0.59693700285666   -0.77191383371587
O           0.73431067113250   -0.52166137427424    1.38986126375957
H           1.62142762714643   -0.25798674025093    1.74309612792730
O          -2.22111655196006    0.72891469755039   -2.09647811503210
H          -2.14053188856560    1.63360980794979   -2.40242847984216
H          -2.05816388507023    0.74187747905525   -1.13758400294878
O           2.83167173484414    0.75463382156362    2.22352671202927
H           2.28067335389742    1.48120332146760    1.87466413277400
H           2.93717337909148    0.91386552815699    3.16492051425288
O          -1.20485476789000   -2.13671822150300    0.10586538180738
H          -0.53580828611934   -2.41658025539319    0.73496635083638
H          -1.43836368292626   -1.22761988108510    0.35826943338797
O          -0.26444092633468   -1.08851506894464   -2.14597871763131
H           0.46388388650159   -0.15691261852670   -1.40895992094952
H          -0.61471380499601   -1.69542240718594   -1.45109915441169
H          -1.03387460107888   -0.53835092563236   -2.41131762693305
