    19
        -40.91386738
S          -1.26518840172062    0.76491127346201    0.29332814996463
O          -1.08076699017559   -0.72193928651821    0.57441640575678
O          -1.44943703807979    1.46866479769177    1.52023828663728
O          -0.26966020994077    1.23512175059723   -0.61412512457201
O          -2.64431362992303    0.80292778094568   -0.49220502555606
H          -3.33906078758539    0.89704260979230    0.15620683344214
O           1.25239443223281    1.37155942165371    1.85206678578591
H           0.29895600094133    1.47362904363921    1.98132439061064
H           1.49687268249506    1.99786796888373    1.16684377920565
O           1.62289926436917   -0.50502183049180   -1.63350320883229
H           1.20822701029481    0.35200255954884   -1.45795177495857
H           1.93298111904797   -0.81796746194252   -0.75447488424367
O           1.86009743274354   -1.13817736323321    0.96147868554573
H           1.79237428911824   -0.26393390386539    1.38923298865491
H           1.05293520015501   -1.60381950090656    1.19248053832544
O          -0.66082784054825   -1.65305521071682   -1.68694684621579
H          -0.91976691107005   -1.19926342000976   -0.36166810270787
H          -1.18721692736653   -1.13400120415929   -2.30011739696800
H           0.29850131501101   -1.32654803436541   -1.78662449987041
