    19
        -40.92071440
S           1.28541650899863    0.65543588914442   -0.33764213895186
O           0.64224641293203   -0.25356951285819   -1.25802715792971
O           1.22762452679589    2.04163237457181   -0.74082596978507
O           0.76258593452730    0.46379325475308    1.02979097884628
O           2.81448016544469    0.26308629660945   -0.26913931331696
H           3.24853681250175    1.07641856777071   -0.02760123129243
O          -1.27912289719335    1.84769770580167   -1.46897007376954
H          -0.35524223212410    2.11347464670112   -1.24767624557593
H          -1.19359309277875    1.24701510804367   -2.21519534738477
O          -1.28305388951974   -1.79609467216445   -0.35342661879082
H          -0.55531904437685   -1.42269081694597   -0.90234051886299
H          -0.81221124759142   -2.22382540610694    0.39266618211006
O           0.38447336521605   -2.10549433386264    1.70122078286021
H           0.32890413380567   -2.18077665633729    2.65495995677651
H           0.67750932687606   -1.19249675456664    1.50917334140247
O          -1.71804814645378    0.44473394586191    0.60292827966139
H          -0.75586583716569    0.53470979077671    0.94832394524800
H          -1.72138443406152    1.06517538032381   -0.21945515324161
H          -1.69793637584316   -0.57822480747078    0.20123628194750
