    19
        -40.90302012
S           0.13590937553006   -0.09827501049404   -1.09819466581454
O           0.39565251767172   -1.51191234458086   -1.12074627684203
O           1.25229472431692    0.76553084876985   -1.28643354064846
O          -0.97033091542926    0.22577313774362   -2.12215149210911
O          -0.56137250285936    0.27465934095604    0.24417506817911
H           0.18849609897661    0.44556578062400    0.89230700990780
O           1.21606953756864   -1.86158425091030    1.57375646279501
H           1.03616034243690   -1.92012467977354    0.62855858451552
H           1.70331820883052   -1.04663365134499    1.72153928716391
O           1.59778652599423    1.06685180162930    1.39393009470032
H           1.20701327875190    1.91565548240167    1.66856019786996
H           1.93148714455046    1.19601467379667    0.49347511103474
O          -0.40855362556066    2.88767113891037    1.71822004571483
H          -0.92318551984358    2.37718227620279    1.08478369123792
H          -0.90630883281652    2.90144442199201    2.53848638026539
O          -2.05108880653333   -2.11248536309254   -1.94893876536696
H          -1.20370888207385   -2.28500620416454   -1.49937962029679
H          -1.57828245595920   -0.56581551917777   -2.13978977363435
H          -2.06135622356328   -2.65451190948279   -2.74215777867809
