    19
        -40.92123225
S           0.51629076856677    0.36397696622553    1.03134420133397
O           0.79192453213923    1.42098828891735    0.07899793724656
O           1.33491492880402   -0.79740062314951    0.90365403393888
O           0.63344099321626    0.92864611037195    2.46235267429738
O          -0.96752748548435    0.01128401040195    0.92796701249793
H          -1.17836170731548   -0.60344878178123    0.05046915002572
O          -1.26486826417292   -1.33974984109548   -1.11603470354885
H          -0.71601846351299   -0.81047437179473   -1.73742584907151
H          -0.71540233416568   -2.13546252887540   -0.90101094593901
O           0.61547208149491   -3.04510916284345   -0.39190592795880
H           1.30283953776740   -3.20109949945126   -1.04315630321816
H           0.96410256939880   -2.35924894260411    0.20756452945565
O           0.49881862182803    0.25852195619660   -2.31455929462043
H           0.38139434649642    0.93338271824022   -2.98604551146575
H           0.74491054698087    0.72394621410183   -1.49155788073798
O          -0.91709418226644    2.83707710893392    1.60700510910103
H          -1.74332385323023    2.37506586564669    1.43790718883099
H           0.07434042549754    1.74406258117070    2.44686304463577
H          -0.35585306204884    2.69504192137375    0.82757154517832
