    19
        -40.91476054
S          -0.78427451160830    0.16381929245605    0.94183372563831
O          -1.10893745265340   -0.15190846003366   -0.46516242999138
O          -0.02687509346080   -0.91285040214229    1.54432426481030
O          -0.13496165898794    1.46508662694556    1.02446237139550
O          -2.14555068682467    0.29647230996828    1.69853714266648
H          -2.56130158098467   -0.58597977286157    1.61431315687535
O          -2.35354245515523   -2.22370695205210    0.91913562348855
H          -2.19457283377232   -1.89099006922585    0.02732850878415
H          -1.47807296228806   -2.29045849907697    1.32394534977666
O           2.21236058769418    1.09933192480171   -1.72442659601451
H           2.20118586077706    0.31003912140789   -1.12359982358356
H           2.86882670229198    1.69829466962714   -1.36144482813502
O           2.10752836702540   -0.90557505089342   -0.02099448733495
H           2.11956658053011   -1.80135342173579   -0.36444052479335
H           1.38437568105176   -0.88027359134083    0.64229231843715
O          -0.15383992024203    1.91462594617265   -1.38369754369515
H           0.81668213293253    1.64307674029348   -1.64859581144462
H          -0.66802276503533    1.01145649225135   -1.29482198942146
H          -0.10057396393904    2.04089311081874   -0.34898842252866
