    19
        -40.91904992
S          -1.05236398363561   -0.43359347933778    0.26040274541497
O          -0.65703416762101   -0.08716963915887    1.60247904297627
O          -0.76973404888305    0.78768354562042   -0.63564834978827
O          -0.45458283443575   -1.60106731854575   -0.29946885386687
O          -2.59436967616794   -0.57020837892743    0.20931205549528
H          -2.93625692579103    0.24502321348443    0.65346114134368
O          -2.65753422231996    1.71691964302056    1.45528843973202
H          -1.88967914932734    1.31532669231498    1.89247460643309
H          -2.30966599265621    2.35838560205703    0.82967381182315
O           2.79906778921614    0.13836401996294   -0.93015185566700
H           2.55005318594756   -0.31789823047819   -0.09500429041160
H           3.08795064293164    1.01808976422702   -0.68338415484062
O           1.86178803868510   -1.07396861929687    1.27712105827684
H           1.05072301328753   -0.64324611535273    1.59109861721649
H           1.57592067839076   -1.93228259067594    0.95186259495864
O           0.65103801535406   -0.21298679501044   -2.41882040255562
H          -0.21132426812319    0.47162136734469   -1.46672676539351
H           1.54201115784134   -0.05989488647081   -2.01110874980403
H           0.41399274727608   -1.11909782479783   -2.18286070140772
