    19
        -40.91893415
S           0.76992010116086   -1.35987519210030   -0.75573431984048
O           1.01226476762614   -2.31363056220945    0.29677526208520
O          -0.66637570441535   -1.12435552720384   -0.96914299078328
O           1.49004873705841   -0.10800047929526   -0.63024746010455
O           1.29191825186502   -2.02813497198245   -2.09764316117272
H           1.11135282033999   -2.95321850090763   -1.96067293113095
O           0.51580593803408    2.25550521282394   -1.04886881433438
H           0.70985133717471    2.50761778955528   -1.95345367395697
H           1.00456472099633    1.40784663177789   -0.88457969487831
O          -1.64268693432568    0.72804012595377    1.97979148497483
H          -2.24436451732377    0.04044973691022    2.27205243289636
H          -0.72586450382887    0.35823250075502    2.09200610795446
O           0.74901260931122   -0.34677024084675    2.03666533468308
H           1.39199498774602    0.22248956409160    1.60329866298199
H           0.81824515951535   -1.19595593536931    1.55484803808391
O          -1.67017035634679    1.07697743064016   -0.52467957955193
H          -1.29229716356349    0.10848975851235   -0.78126590450011
H          -1.74135604344914    1.02723203314214    0.50762214447634
H          -0.88186420756986    1.69706063577986   -0.73677094787296
