    19
        -40.91940432
S           0.49369525236062    0.82294959282259    0.47139571496668
O          -0.97174099676372    0.75349737764696    0.44541478972722
O           1.07350650817248   -0.35358787165733    1.08453116202098
O           1.02455332273780    1.04152383189349   -0.87827943047161
O           0.89024389636236    2.08115808839195    1.29535110466083
H           0.33832314498959    2.01093455130577    2.10255474128152
O          -1.83398498622224   -0.66603224318986   -1.56016741784818
H          -2.38382196578790   -0.07589179064852   -2.07986454081678
H          -1.59307225247991   -0.16564351764369   -0.73723523043277
O          -1.08932452426019    1.56228833625430    2.95210312838478
H          -1.29781422082967    1.09463930159827    2.12016659316859
H          -1.76552006209946    2.23405000617583    3.06805600295007
O           1.45846633538660   -2.41742048517184   -0.41246819652282
H           1.28726923076876   -1.71171146683689    0.27081873195746
H           2.40023668914714   -2.59756757128940   -0.37463944650391
O           0.58487979509838   -0.94782694951423   -2.26231807676816
H          -0.43354924041420   -0.95574159427885   -2.12081519959844
H           0.85542872610176   -0.03874063519080   -1.76549416138312
H           0.96222535780796   -1.67087694062999   -1.61911027873025
