    19
        -40.91359130
S          -0.11610522767274   -0.78377093251397    1.81437705980848
O          -1.42487561517413   -0.94066775906013    1.06776178323224
O           0.70303853157760   -1.94752429750311    1.68263044550805
O           0.52722664354956    0.45758843110693    1.47455732018758
O          -0.59595719738753   -0.66641763954879    3.30529198025774
H          -0.85881827854334   -1.54281755914354    3.57899748004624
O          -1.34669274500507    1.47099720826975   -2.06110126330222
H          -1.24281160757440    1.80241349166351   -2.95421688346075
H          -0.64182369857162    1.89117816451212   -1.51822135939195
O           0.76131920977595    2.25038705373347   -0.60402972898954
H           0.59944737460600    1.85603187564117    0.26676125620161
H           1.52264684257590    1.78366353676509   -0.96029947347116
O           1.72941934329162   -0.71652251210351   -0.64476923011294
H           2.01784645844054   -1.58149335912638   -0.34021304092339
H           1.48611517125373   -0.23870640474855    0.16633759185440
O          -0.85198509547068   -1.00636483775649   -1.32440652510875
H           0.13011815705393   -0.95432213280851   -1.26904208394193
H          -1.24410799420864   -1.00852764455673   -0.01121356864120
H          -1.15400028249032   -0.12512469279799   -1.66920176976540
