    19
        -40.91722676
S          -0.52302508345465    1.02734176205277   -0.48564858219871
O          -1.02874155589363   -0.34681293718710   -1.03811563707477
O           0.88810979600672    1.06826718724372   -0.71384596781056
O          -1.32307117207617    2.08203338264122   -1.01479640636775
O          -0.81741693165303    0.92866399461661    1.02219916742196
H          -0.22092816939760    0.21300148878338    1.46561081472695
O           0.68737255978143   -0.79655718911738    2.07539902369940
H           0.90095355533473   -0.55598962481497    2.97982782437955
H           1.54718928067438   -0.73500256637420    1.55702247069015
O           2.81530125606232   -0.44304016345520    0.63276075713523
H           2.54101586848540    0.39839216538058    0.24386449622482
H           2.71169337389725   -1.07832752291330   -0.09793734159369
O           1.63908252117084   -1.44995535876048   -1.61686232939479
H           0.82862338067696   -1.96285274234162   -1.62694486804422
H           1.35918038033421   -0.52471568218747   -1.55121524200993
O          -3.42255535762703    0.52351987040978   -0.52117301849994
H          -3.58583881367158    0.59239466418111    0.42294204518653
H          -2.98602664454377    1.35219614135939   -0.78624590887410
H          -2.01091824409233   -0.29255685949054   -0.94684129759836
