    19
        -40.92217214
S           0.93051226173347    0.20615075723186    0.99803071399950
O           1.10176046727930   -0.86170876228814    0.00505841606347
O           2.01691652367883    1.14322209697099    1.01375722600956
O          -0.39962167909770    0.78357900766525    0.91334357163111
O           0.94895534101616   -0.54355478700331    2.41112551746535
H           1.83621878737641   -0.42259473979394    2.73611550869374
O           1.47050240397730    1.43879746904741   -1.60485382516891
H           1.73587411939219    1.51914320961973   -0.67163157110667
H           1.96438926648821    0.69016030868811   -1.94765831514955
O          -1.18577990151760    1.14801923475569   -1.62294044748186
H          -1.21030286968100    1.34668703237827   -0.66995554131920
H          -0.26500657186453    1.38268957205028   -1.87351210790604
O          -1.99465273179445   -1.27379747619750    1.15357743719761
H          -1.50697753156069   -0.42276513664799    1.24186904933885
H          -1.61559296314520   -1.86547368181278    1.80645779602584
O          -1.00691405547224   -1.30797567900120   -1.20879697781576
H          -1.58595446826089   -1.44224485447591   -0.38614668536608
H          -1.18446171917810   -0.30045324099062   -1.52183977911439
H          -0.04986468934641   -1.21788034017947   -0.77199997600473
