    19
        -40.92096386
S          -0.56591913943438    0.71895935219867   -0.25621949443252
O          -0.59085292816183    0.46282035516956    1.16059667128703
O          -1.19847328235985    1.91989879861867   -0.70452526714033
O           0.85874075990539    0.67874622498605   -0.76864909301183
O          -1.26860688220955   -0.50572209575353   -0.93614007024904
H          -1.51849666319604   -0.18969526547502   -1.84105333078311
O           1.77980361386445    0.62906132448345    2.50946442926913
H           2.06341771428232    1.54454907538904    2.51887110065231
H           0.84816463934374    0.62754735435550    2.22966288458124
O          -1.88083135283907    0.89219322272055   -3.03274773137482
H          -2.80653264340100    1.03362613482467   -3.24642870646857
H          -1.62914136922131    1.58720046195295   -2.39500702815847
O          -0.18109822274024   -2.21795074645863    1.03952158445113
H          -0.49163120964373   -1.33412194238169    1.29845877374374
H          -0.71255711632567   -2.46690879086771    0.27974105961188
O           2.13227103009025   -1.04879717604433    0.46163959345487
H           1.46022474445081   -0.08851585959820   -0.29074737266052
H           2.28115010616255   -0.54663481962653    1.29284658392798
H           1.42036820144652   -1.69625560850173    0.68071542330192
