    19
        -40.92021794
S          -0.78987944971067   -0.68509250589539    0.17682895026842
O          -1.21983662487437    0.44518643691566   -0.62779760386290
O           0.52907377682227   -1.20866364086990   -0.36010371559655
O          -0.70780093342709   -0.42984519399161    1.58015896215686
O          -1.76769160903696   -1.85569550377401   -0.06643180094812
H          -1.98920295202817   -1.82370913702762   -1.03032831880358
O          -2.27438590526451   -1.08409251179594   -2.49995138924472
H          -3.19626546028507   -0.88311140447684   -2.67902794864144
H          -1.88824388000175   -0.29500261507965   -2.07422247563179
O           0.71532852222886    2.30805961766271   -0.56640380274284
H           0.76860139554993    2.68529557744771   -1.44661668671122
H          -0.08095393908108    1.74346298328093   -0.55142794431401
O           1.58886529189964    0.20126697503292    2.82228059402018
H           1.81969288303316   -0.55720123988356    3.36189842060189
H           0.67018450981051    0.05679166928670    2.52539371386482
O           2.31417362400116    0.36536917971040    0.28500791667988
H           1.90335920188574    1.20962984581115   -0.01401236786826
H           2.23275399204292    0.36577454863626    1.27079349714976
H           1.37222756641966   -0.55842308096370   -0.10603801033307
