    19
        -40.91814265
S           0.67381778280868   -1.61403036168740   -0.23299808464632
O          -0.23023754460254   -0.91296256211856   -1.13908301812154
O           2.05584531377237   -1.59519540123490   -0.61540698468768
O           0.45195849258690   -1.17521355742874    1.15101736256222
O           0.20679351352412   -3.13390212142918   -0.27612809055537
H           1.01775238696582   -3.61307371926696   -0.13483333025714
O           1.60788971530808    1.01957213386487   -1.16683891106167
H           0.84733107404140    0.48267328431599   -1.44476798441741
H           2.26674028419551    0.35046621437826   -0.93631894720353
O          -2.43675795245071    0.20139976065798   -0.36273028034396
H          -1.65425228764956   -0.23693210210489   -0.78798817766677
H          -3.11057764218114   -0.47566577807941   -0.27823549040012
O          -0.97443447082995    0.76767731095831    1.63791348730083
H          -0.34525624341023   -0.09301957293988    1.51360145822231
H          -1.68385425207650    0.63322439074576    0.91240855861358
O           0.53281541142657    2.55882377191952    0.66282290111064
H          -0.38094115344826    1.55574156967455    1.33027205473983
H           1.05444305766637    2.02616477066767    0.00476822776725
H           0.10092452435408    3.25425193910625    0.16252524904715
