    19
        -40.92161576
S          -0.63965270702708    0.29506547815427    0.79990920933777
O           0.54583359764038    1.10168316852484    0.27058381703720
O          -1.74798852903714    0.44587449913804   -0.11436482098221
O          -0.25948323884812   -1.05806481737154    1.07174074997106
O          -0.96878294705381    1.00981087203351    2.12696225809385
H          -1.27616992236696    1.90932796869282    1.84825932125293
O           2.18868993414385   -2.03280526314487    0.49120074422355
H           2.26022615753203   -2.97070275394370    0.67523249505729
H           1.33564066370187   -1.73711829200024    0.85877697296099
O          -0.71042485876040   -1.40444984790804   -1.78931628976379
H          -1.26759645349399   -0.72802392987828   -1.36893301949475
H          -0.74854230593832   -2.16467123689544   -1.20348723878607
O          -1.65678402210911    3.03169205744011    0.64583368660372
H          -0.83960931240651    3.33615382113272    0.24106197140652
H          -1.98826708368691    2.30853245728284    0.08942480910072
O           1.67624724334610   -0.26789596887746   -1.45304464656902
H           0.87522192794033   -0.72045380080280   -1.80879546916034
H           1.09772778289769    0.57434002298452   -0.49626895896327
H           2.12371408351728   -0.92829441454480   -0.88477557132593
