    19
        -40.92453848
S           1.20816479689816    0.85928589091701    0.35200222290174
O           0.93407210956047    1.06698150449777   -1.06523376003595
O           0.08877656341420    1.31634350728038    1.16831200351072
O           1.59153058982908   -0.50483088939181    0.64903242405516
O           2.44907783296163    1.76332838968064    0.72318847999271
H           2.17524179702406    2.65297707935999    0.51966637518726
O          -0.59201890513950   -1.27443834477379    1.82653994731853
H           0.33341357431168   -1.12983629011697    1.51040495696144
H          -0.83366916891088   -0.42386589729078    2.21202176279807
O          -1.77842751340972    1.17406325497417   -0.62366891280012
H          -1.17974474446136    1.35486100021805    0.14516498168019
H          -1.24257351550250    1.41327078931945   -1.38898585516225
O          -1.65006052029752   -1.33683956997055   -0.46067996594097
H          -1.85811833838396   -0.31886004507436   -0.57613094090762
H          -1.31309762503046   -1.42194936420149    0.52638041034919
O           0.53965204837286   -1.42177209802753   -1.70562090923530
H          -0.79920982498030   -1.49239919795123   -1.05094076217911
H           0.74224428486056   -0.45435571685775   -1.65037176040381
H           1.18474653885867   -1.82196400259979   -1.11108068806463
