    19
        -40.92221084
S          -0.54490300173117    0.88907803236260   -0.15711239348379
O          -0.61434882269559    0.01618818106164    1.11797137323092
O          -1.81829724893849    0.81353030782413   -0.79994620328193
O          -0.04019906015233    2.18974603095220    0.15295642614608
O           0.53084582476112    0.17297047542861   -1.01466548733426
H           0.26639574987999   -0.80959976303670   -1.04905900106951
O          -2.80645867211829   -1.58864590992392   -1.33973656604021
H          -2.60598588932385   -0.66352010434263   -1.08661674289752
H          -3.16854377027968   -1.55056335767729   -2.22714049683562
O           2.57932704027269    1.75998942488000    0.25183252080368
H           1.68730375034176    2.14936761686144    0.15806820038584
H           2.71395542125709    1.23712110159259   -0.54257318534877
O          -0.29809470095732   -2.22030284216294   -0.84771315451927
H          -1.25447478807442   -2.13775833869526   -1.09280583410293
H          -0.28564847837511   -2.39115929951739    0.09802238200337
O           1.65214952731197    0.31360080023561    2.23529694032833
H           2.15211919812392    0.81450146859185    1.53622248499039
H           1.58699676142304    0.90386691173291    2.98967825663859
H           0.26786115935106    0.10158924379649    1.61732046051080
