    19
        -40.91517854
S           0.70527730571611   -1.13016882369253    1.38017396798524
O           1.32824210209882   -1.32493511222259    2.64568980616711
O          -0.63661856159292   -0.54891023367269    1.41610614361084
O           1.52123141915248   -0.42030128714704    0.38561188275354
O           0.51347927888591   -2.59857210284903    0.75241029021654
H           0.94154584138886   -3.13760115344270    1.40994112177227
O          -0.27346103112973    0.94467961433533   -2.45409341764525
H           0.30288411694807    0.64734562401959   -3.16037387551572
H          -0.63669780366536    0.12729821253843   -2.01998636206942
O          -1.01165688461053   -1.18053990605476   -1.10248935764850
H          -1.00305632164084   -0.94253120896830   -0.15138834910324
H          -0.47059352541039   -1.97243164703005   -1.14919550552440
O          -1.07735648921275    2.01002318942569    1.20844791133041
H          -1.94675964376242    2.09361665657596    0.80977416487736
H          -0.97906463906979    1.06001455304475    1.46232133147163
O           0.89416034240082    1.83253551429880   -0.38480923976457
H           0.12577370888846    2.06650725437993    0.25549708172448
H           1.25011781182334    0.88894765652660   -0.02038184751081
H           0.45255297275473    1.58502320968602   -1.28325572555295
