    19
        -40.91749315
S          -0.01063454127979   -0.47114809243972    1.21720000917679
O           1.46195097115629   -0.13133287080172    0.99546895492929
O          -0.14476770299919   -1.30331233258651    2.37104988227649
O          -0.79973696633147    0.72593078321541    1.15852590617150
O          -0.40129734665521   -1.32047318483547   -0.04210400585248
H          -0.05696077940953   -2.23305732011013    0.13428250661028
O           0.43314347117202   -3.52122406062132    1.05192540385606
H          -0.19978278256090   -4.22507503027766    1.21527180192076
H           0.38909764013233   -2.91959747540292    1.81873721996656
O           0.39121450690760    1.98188753126490   -2.31192422285359
H           0.15936814478206    2.77153930721660   -2.80353888132220
H          -0.45743909175937    1.54421604152014   -2.06784924373606
O          -1.80170387515722    0.79784023175262   -1.35166607915891
H          -1.59430545356554    0.86167394944860   -0.40185460021000
H          -1.75662637377367   -0.14043214442522   -1.55216014316709
O           1.30238828376543    2.22593718995757    0.15835965901327
H           1.53194849431927    0.83488208655185    0.62386600646196
H           1.10163324226914    2.16671548953533   -0.81087440136211
H           0.45251014887195    2.35502991082912    0.59728422727610
