    19
        -40.91793140
S          -1.53675750920530   -0.85313447886680   -0.00473757583235
O          -0.37855607399740   -1.20555251131469    0.79027916073976
O          -2.56689470172656   -0.16710057450170    0.74078243633299
O          -1.14459856646122   -0.10752610194271   -1.21177783788169
O          -2.15317573234360   -2.21305563495901   -0.52491386596717
H          -2.99357294423538   -1.96539238752476   -0.90088651389228
O           2.44229963539582    1.05218480139002   -0.69947993177952
H           2.76587974956673    1.17482815982300   -1.59425312803826
H           2.30648117562887    0.07164559610461   -0.58664099394447
O          -0.73156853720905    1.30892105553284    1.88830208319634
H          -0.19672640738791    0.54176274564152    2.12424379356598
H          -1.59209371587896    0.91505566543458    1.61850268061431
O           1.91114094157976   -1.49434475468170   -0.43345121862082
H           1.00758801886608   -1.45147003457422   -0.03905890954488
H           2.42844486092939   -2.04302102912638    0.15909371962898
O           0.06081501248061    1.89708083010807   -0.45127406678404
H          -0.48426666816753    1.08141905525232   -0.88422773812322
H          -0.20171397550588    1.82757156221126    0.54328551212214
H           1.05727542752255    1.63012801590898   -0.53378763587437
