    19
        -40.91893400
S           0.17096710051033    1.71331866291304   -0.23907788176670
O          -0.71528894638610    0.93596643520655   -1.11881703936857
O          -0.54952680457547    2.33982314763975    0.84012681167053
O           1.32329291524761    0.93071660088190    0.16242330855193
O           0.73750356862325    2.88926398448304   -1.14261729447030
H           0.07194159316838    3.56516863564187   -1.05689416517659
O           1.97677980481486   -1.40146284888130   -0.75608229304388
H           1.84188095764002   -0.50721059445290   -0.34800500827102
H           2.61234899754991   -1.28140173248957   -1.46407307791918
O          -1.64260622366832   -1.90469311565181    0.91545191338572
H          -1.18426226301433   -1.21523015458161    1.46696959616241
H          -2.57203110709540   -1.66747185589494    0.91102659647276
O          -0.40976712354573    0.05356853764787    2.15100701829521
H           0.54452896450947   -0.02792621357286    2.06194156190992
H          -0.60851418709655    0.94442733310578    1.79753977745488
O          -0.49916929054534   -1.50731614202345   -1.30482916545640
H           0.50447279689218   -1.62848118618442   -1.13502969849432
H          -0.98464179979613   -1.78797023926766   -0.43383347794345
H          -0.61790896356766   -0.44308926437089   -1.30722748169349
