    19
        -40.91463181
S          -0.97874844185059    1.11966650238832   -0.93497178998090
O           0.31710126257611    1.47524575692561   -0.21031151031072
O          -0.71761385360140    0.97875593320586   -2.33128979796628
O          -1.63883452665793    0.05532179262791   -0.24890057324867
O          -1.87271091014107    2.40831334047629   -0.74764425169223
H          -1.67110437290570    3.01383738602705   -1.45828389501718
O           1.41328962646956   -0.63792558763360   -1.84703003428402
H           1.94214039856099    0.03393605346003   -1.41071281274702
H           0.69311074173745   -0.16129019160030   -2.28638496727426
O          -0.01664252138909   -2.19901044036533   -0.11280820313222
H          -0.79829567295613   -1.63189517530881   -0.16776730952245
H           0.58549432562416   -1.86752707336855   -0.80329267410489
O           1.06276480090681   -1.48203278338908    2.18241876802199
H           2.01241779699148   -1.51652205702118    2.05996462661345
H           0.65909386479672   -1.89053920475800    1.37301600186216
O          -0.27668282586679    0.74175939939151    2.06744592004065
H          -1.14528440094981    0.40162835051501    1.81671382100795
H           0.28394825888402   -0.07207221816492    2.23928258478968
H           0.14655643973619    1.23035019655307    0.82055608694675
