    19
        -40.91289214
S          -1.67880672778060    0.80911939988512    1.29226374511305
O          -1.04781248647901    2.10094312360945    0.80440438511294
O          -2.82973588361665    1.07290428480272    2.07579678044333
O          -1.77658331648678   -0.13343085221519    0.21598458667331
O          -0.56452380867800    0.21642038165943    2.28273838001579
H          -0.79407387429464    0.57326733331236    3.13704271279052
O           1.41806184668024   -2.23554106901076   -1.04963066121760
H           0.70144288061787   -1.73958595642010   -1.48468212612928
H           2.12166102137191   -2.32933607690038   -1.69397033649550
O           1.85756299449695   -0.33594842451433    0.82776617831573
H           1.15895412008665   -0.40006898716507    1.48726443459166
H           1.77554306314755   -1.13154708057832    0.26134523032724
O          -0.50901460020992   -0.53595500888203   -2.04632154989196
H          -1.03107616116633   -0.47328589333414   -1.21470467271096
H          -1.14621992686649   -0.65070319934904   -2.75321324871417
O           0.81137252010887    1.49260383954105   -0.72355698400411
H          -0.24818810424821    1.89573243700807    0.12972547730432
H           1.35620385210489    0.88991134020583   -0.14409521373207
H           0.42523261133396    0.91450043840071   -1.40415711781033
