    19
        -40.91833237
S          -0.21115662515818    0.45308055147853    1.65301485900949
O          -1.63433191538906    0.54283864676423    1.86469989456266
O           0.24608286591882   -0.83400638687476    1.16706364948816
O           0.28803930716079    1.54989824737914    0.80889900625638
O           0.47647346614684    0.65602921322564    3.06568885636041
H          -0.02013232697909    1.37257226454799    3.44914977225019
O          -2.11641391537475   -0.91394149885396   -0.27320001384591
H          -1.58952071174145   -1.65729981065599    0.03423491187462
H          -2.12580577312458   -0.30307649154357    0.49398806572249
O          -0.89442635890732    0.09018757915666   -2.35923944259882
H          -1.46994213623348    0.77273101012553   -2.70933101101089
H          -1.38754824289120   -0.32030701432071   -1.59540862549469
O           2.28446976075559   -1.18932050566642   -0.39200147887739
H           2.13239933197150   -2.02280774450718   -0.84218125643091
H           1.60579731753207   -1.13124945701260    0.32837592713152
O           1.27791952756255    0.93777453640478   -1.35207201976165
H           0.43498523975753    0.61034933248857   -1.84548526047150
H           0.89297634870865    1.28385666813425   -0.40674568206471
H           1.81013485038150    0.10269086974212   -1.08945016210620
