    19
        -40.91463209
S          -0.21084731888413   -1.74317161924670   -0.06038137097812
O          -0.94079920112424   -1.00530975227974    0.92041247470751
O          -0.87616013893490   -2.13296172014673   -1.26181774666402
O           1.07653315678227   -1.00138139798521   -0.41115679155111
O           0.30198655028450   -3.05991272830764    0.64566571604460
H           0.45877141766761   -3.71561842645580   -0.03088328525411
O          -0.63308678325865    0.37002332097428   -2.29423175797422
H          -0.90184867884453   -0.54908595159681   -2.14646055765242
H           0.32502310423535    0.35546731762138   -2.35111960533146
O           0.63559124137773    2.60940613415349    0.93024517347247
H           1.04322799526003    3.07593056563416    0.19937154279774
H          -0.26523478703046    2.33136903257034    0.61990677342020
O          -1.58154832641739    1.53651212973090   -0.00762006370921
H          -1.62553495016759    0.69285756421042    0.46346335587518
H          -1.38722175572961    1.29971420463665   -0.93244156453146
O           1.41213733261763    0.24806103711251    1.68797144523062
H           1.33919326127953   -0.44825912161409    0.46977901298429
H           1.23037724143221    1.20721233810871    1.45812778512172
H           0.59944062920902   -0.07085290663550    2.10116945114402
