    19
        -40.91398580
S          -1.49919706437589    0.69058455732749   -0.13501348704231
O          -0.88608016391507    0.63584359891370    1.19701313959341
O          -1.29930540882244    1.92709924990634   -0.82311318153790
O          -1.11572536000021   -0.50678586444386   -0.89718171907086
O          -3.06131508925359    0.52523233787348    0.10007969537345
H          -3.42298112832536    1.40706909701063    0.11815185672320
O           1.76909063525034    0.87683895242281    0.57839358207365
H           0.88657027671764    1.03221076060481    0.95209955280492
H           1.66733459222570    0.98980061125715   -0.39144745590114
O           2.03216112222110   -1.67149462179787    0.78015579083295
H           2.07670436137390   -0.66050307140433    0.77578296475268
H           2.33005366152321   -1.95942918574101   -0.08600821970466
O           0.96259121744690    0.87074119931245   -1.98500658993273
H           0.49640809408505    1.71215587760669   -2.04080448140059
H           0.25535974119142    0.22146896525222   -1.85047138700035
O          -0.43861770971923   -1.80405549520899    1.08199261607496
H           0.63216077667666   -1.86407497645484    1.00049611432523
H          -0.61532252490672   -0.88341643084417    1.48921414094206
H          -0.76989001931353   -1.53928555187148    0.13566704819657
