    19
        -40.91359127
S          -1.07061023004906   -1.10522614818923   -1.24526707575956
O          -0.83433064490621   -2.42261693994300   -0.74370310670561
O          -1.96412498139023   -0.31087453493554   -0.31520138259643
O           0.11247970323732   -0.36046705627337   -1.58633636908815
O          -1.94799938019144   -1.20598683940555   -2.54409337226655
H          -2.63512396374651   -1.84370442951106   -2.36175895757442
O           1.80261286911139    1.56294627305243   -0.57068264657646
H           2.36842545745163    0.89750634905916   -0.16883066637344
H           1.19177450676597    1.07285662250298   -1.14229300802151
O           1.36445280367187   -1.29196129031460    0.62268497018374
H           1.12920660705489   -2.22185118473012    0.68678116187028
H           1.07853019127673   -1.02692356364488   -0.26803184752523
O           0.23067288541353    2.49889351500649    1.38605537909674
H           0.77391751520579    2.97461229054398    2.01608621951305
H           0.80419216019778    2.29535459770191    0.61283372127161
O          -0.66963333717032    0.05277115742735    1.74508985663933
H          -1.46071646801986   -0.13590898741457    0.64362647965527
H           0.15148293872945   -0.44441242401904    1.52344739384894
H          -0.42520862265700    1.01499259307871    1.70959324040379
