    19
        -40.91527157
S          -0.32042721037533   -0.13755683113662    1.65874582299867
O          -1.17704863925942   -1.21064617898338    2.03838997383216
O           0.25857603453702    0.72872308046558    2.62395226602164
O           0.83041992271609   -0.75903812999403    0.79428524022712
O          -1.07110302608223    0.75689142164448    0.61614621512547
H          -1.69688909356701    0.12812719116620    0.12761970160666
O           0.53960512699362    1.66049353657373   -1.46871100251101
H          -0.25345248832965    1.77895631182644   -0.93253632783951
H           0.44470105209697    0.78821089716754   -1.87655494569656
O           0.14242206279307   -1.20838898959058   -1.78099759280923
H           0.69033022904815   -1.80682380791379   -2.29210281611025
H           0.50393189418112   -1.19090437683188   -0.87578886644975
O          -2.31210269586859   -1.17990304166443   -0.45112803534610
H          -1.63111246211604   -1.43380361341569   -1.09516100283340
H          -2.14536551314459   -1.66053579753660    0.37433787353376
O           2.18025756296446    1.33288393734799    0.61810296718051
H           1.76644932759751    1.74154370033353    1.38868967871537
H           1.52592822488433    0.00538050710582    0.72422871677232
H           1.72487969096837    1.66639018345356   -0.19151784626203
