    19
        -40.91612679
S          -0.28966435871713   -1.22331898984594    1.19654707146283
O           0.60236170232220   -2.20258961487682    0.60414086284933
O           0.40076464860815    0.08249281331174    1.32763228354874
O          -1.56877548727458   -1.09348695495861    0.56319291693640
O          -0.54085690197564   -1.69409355867719    2.68617367145290
H           0.31489131390501   -2.00293442763735    2.96791807979700
O          -1.84626290458758    1.51367950563382    0.67849035880341
H          -2.03181467316336    0.55819182507799    0.56437700625674
H          -1.09409298061633    1.51152447429719    1.28345881932001
O          -0.67000274286484    2.16141284946839   -1.54931053790284
H          -1.24788675054003    1.93837598486186   -0.76054544656695
H          -0.59525823491889    3.11718856536334   -1.57278739489802
O           1.26106379548665   -1.50749580671663   -1.79194315547754
H           0.93840843597407   -1.89287483930957   -0.93324941638280
H           2.07406113294306   -1.97058585288200   -2.00539124018966
O           1.34891725993689    0.82892112303053   -0.83097585627726
H           1.36596456543666   -0.06314948495877   -1.34847054138580
H           0.56677973093671    1.39770802477752   -1.21582242136261
H           1.01140243909464    0.54103436406781    0.13656492999368
