    19
        -40.92079118
S           0.07532294116488    0.57078543721747   -1.36950012543269
O          -0.83869648212433    1.67898823259673   -1.47145633279625
O           1.23428462280976    0.87432131265883   -0.52754447351294
O          -0.54741068630618   -0.68397535553076   -0.97109730357920
O           0.65029542713372    0.30178088071015   -2.81935647760584
H           0.93501523832974    1.16373746066866   -3.10659776795858
O          -1.41958287584602    2.15357339493964    1.06304479882910
H          -2.24189836480417    2.64656658524614    1.08912529297011
H          -1.17608612717906    2.07819830229371    0.11500509520580
O           1.10434039366869   -2.55361937661988   -0.16222477542820
H           0.59103287262359   -3.33459547673894    0.05410859971565
H           0.49978014960198   -1.94586292420352   -0.65022493460067
O          -1.08643375079854   -0.40034366320310    1.62450459871023
H          -1.27832954213753    0.56658185961874    1.64454098286029
H          -1.16263890158241   -0.63361589401874    0.67715075352192
O           1.39321869029864   -0.59391195769291    1.45858465694735
H           1.45470077322719   -1.47663652795616    0.96133698515568
H           1.45048254384645    0.10385362540639    0.67018892408449
H           0.36260309672637   -0.51582591822313    1.72041150231330
