    19
        -40.92134939
S          -0.47189318495218    0.27159686769257   -1.07602089434906
O          -1.19569688540454   -0.53906994118737   -0.06503736402837
O          -0.10971353135145    1.55365898057637   -0.47469632055803
O           0.65817726079089   -0.44280011938618   -1.60983474611541
O          -1.47736634936994    0.53585702001842   -2.22999639531472
H          -2.19801731928622    1.03638416571851   -1.79163815333743
O          -2.79047212449584    1.74998046120963   -0.29862917674746
H          -1.88085109005011    2.05987991910153   -0.16207352414643
H          -2.85936934592536    0.92838508991659    0.19975619135045
O           1.52633441665234    0.95869624916128    1.45297416918552
H           1.40607849595600    1.61979064087639    2.13800105721868
H           0.99822655699099    1.26903368925805    0.67132903868752
O           1.90120929472945   -2.34477465175577   -0.34149884342068
H           1.44640924632311   -1.73713710090470   -0.97640485476090
H           2.82759415222565   -2.09289541626195   -0.35292997538686
O           0.49081986362082   -1.36718041625511    1.51658996793208
H           0.96760447033424   -0.47344721698953    1.65234958788543
H          -0.33769392760687   -1.08301312852540    0.87389752637048
H           1.09862001081040   -1.90294510223786    0.87386271951126
