    19
        -40.90608612
S          -0.48517008577752   -0.33666409727768    2.03951456193771
O           0.66903721153318   -1.19018099041089    1.95839180426743
O          -0.35396380065815    0.95561676880867    1.45717990649714
O          -1.71016115039999   -1.07749108536746    1.49742789292838
O          -0.86450773280313   -0.17416561868074    3.54752204264264
H          -0.80233027202265   -1.04249450850131    3.93989664679028
O           1.38911279809881   -1.37738422142217   -0.60466242563984
H           1.23962569853816   -1.34571633804017    0.36098695552954
H           2.28771126610630   -1.68652615214365   -0.73232320603985
O           0.02799827377179    0.99486485861970   -1.22184599882529
H           0.78417048082129    0.38745456548635   -1.21805932176294
H          -0.09247593255061    1.26115142600335   -0.29456589938264
O           1.21957306561698    3.07035323632348   -2.74084373215411
H           0.76399559739171    2.36544118789324   -2.25652683389490
H           0.55878423131059    3.74056362341952   -2.92036178295115
O          -1.35556970478556   -1.25955724475502   -0.97578457956222
H          -1.64547952991551   -1.18033333852469    0.45978602282658
H          -1.09944933184286   -0.34380479901796   -1.23878299113055
H          -0.53090106253301   -1.76112726248680   -1.05694905210486
