    19
        -40.91232569
S           0.22665644153579   -0.78978704832599   -1.04374944318406
O           1.41842321415661   -1.26729751305625   -0.39734702720187
O           0.00337365381785   -1.19531836659598   -2.38702200320607
O          -0.98725405394692   -1.07471658552212   -0.15961715187736
O           0.27060605484904    0.79650176299491   -0.97760454000725
H           1.02123695704700    1.01847859143681   -1.56907356489355
O          -0.17066429218683    1.56336497036138    1.74615054686431
H          -1.14389550021799    1.53945125838766    1.68080977274971
H           0.13171515338882    1.66010485973456    0.83515999107531
O          -2.70941635786426    0.81189432654608    1.08195504604756
H          -2.34977539288106    0.19164225462540    0.43369220005934
H          -3.26513780711456    0.30130108534858    1.67397558981431
O           2.32845476598607    0.32193405354483   -2.52074161379938
H           2.67717708779175   -0.30364439204424   -1.87495738388616
H           1.81036381422781   -0.20331863993937   -3.14156302777659
O           0.17086661035153   -1.00849229268432    2.02601969848497
H          -0.59596053593536   -1.12543296299284    0.83807368057584
H           1.02591580291365   -1.22253669630747    1.62685806715952
H           0.13731438413450   -0.01412866558596    2.12898116294046
