    19
        -40.92135398
S           1.26517464960526   -0.87535247082484    0.26360807129997
O           1.26392154205036    0.57906105810098    0.26106154786071
O           0.45746393618955   -1.44487368335119    1.31973731992140
O           0.90984267109549   -1.41386001450430   -1.04998428598803
O           2.75873661656669   -1.30809143572538    0.53199536078349
H           2.69043035640730   -2.25235582372137    0.63418103495108
O          -0.00989252238894    1.73226306514578   -1.75053260251304
H           0.58714892662147    1.84524947910117   -2.49244571283103
H           0.54172716940921    1.44546576769507   -0.98757932493361
O          -0.71963312751749    1.57514771428191    1.78187514777182
H           0.08219020142803    1.32552225840372    1.28245788860251
H          -0.50201768185480    1.46635624003206    2.70927591463865
O          -1.94093278118138   -0.54113444121202    0.77373106066441
H          -1.16471712607957   -1.06731440109365    1.07913775950290
H          -1.76322007432810    0.35437662519630    1.14878601465032
O          -1.31625070289592   -0.45605046209070   -1.61988837657753
H          -0.42649890668244   -0.97873197693598   -1.49709055388957
H          -1.73057844947336   -0.47833156872800   -0.60964714924216
H          -0.98289470464756    0.49265410112605   -1.77867911864768
