    19
        -40.92136403
S          -1.01611399254730    0.21989804166819   -0.91704622222234
O          -1.65169548677698   -0.86885112745565   -1.61697422374865
O          -1.16654593064107    0.17215787801347    0.51991877564935
O           0.40106556113243    0.37338266512716   -1.29071912470343
O          -1.71719355689769    1.55919437146478   -1.40283280617489
H          -2.00918788910793    1.36222550180432   -2.28837554415262
O           1.10411627207587    2.36779236525663    0.36326596183113
H           0.35399569767848    2.96339900663492    0.40655746219017
H           0.91462019991859    1.74778912002624   -0.36599966943740
O          -0.57551085240570   -2.58718069656638    0.06623103456543
H          -1.02753903761927   -2.10182474319218   -0.66091602156309
H          -1.10694368987252   -2.42011132777634    0.84966279146140
O           0.97901915700833    0.28428513704489    2.02021045882129
H           0.03989198236363    0.25338890186017    1.72636542016197
H           1.28337521841191    1.14967651230421    1.66785495048233
O           1.60132110200659   -1.26115600963521    0.18601061467181
H           1.28374872913378   -0.61017408237425   -0.54221473412534
H           1.46415709970125   -0.65190173720977    1.08463008941498
H           0.84541941644783   -1.95198977700781    0.19437075686933
