    19
        -40.91520678
S          -0.12574468704546   -1.16361541579056    0.43212685879450
O          -0.20763495089754   -1.12775349070311    1.85580879533574
O          -1.47768288308838   -0.82624384735148   -0.18015175109368
O           0.89543358291389   -0.31218342847598   -0.14786106997189
O           0.12846298137725   -2.61532495804386   -0.06212313016873
H           1.10182403761261   -2.73209502469337   -0.19746378690382
O           2.67315609320761   -2.25536825325884   -0.51554743425818
H           2.96506750199897   -2.33233299500337   -1.42733716018958
H           2.35031971153509   -1.34489828759726   -0.39220107547702
O          -0.21052818253776    1.56365603291592    1.91602501193255
H           0.73069978109747    1.71352655573693    1.80376402306049
H          -0.30867591006635    0.60752435145624    2.06575506894307
O          -1.61228487344089    2.67177194095527   -0.10685517314405
H          -2.53800959902370    2.62712151289495    0.13865941755717
H          -1.10983531437983    2.34152527927733    0.66861353404170
O          -0.84345078430561    0.88660979355991   -1.87590176598229
H           0.08584662574430    0.78901528412579   -1.62677755234372
H          -1.32828118500684   -0.16700984229568   -0.97982319468077
H          -1.16868194530873    1.67607478227006   -1.36870961542351
