    19
        -40.91241722
S           0.85562453343701   -1.10969761155614    0.46059454847645
O          -0.25461019334838   -1.12097937158881    1.38807622345736
O           0.51464107129031   -1.64851403203593   -0.84485049134687
O           1.45963392658152    0.21962812157020    0.35834250200064
O           1.96729144064827   -2.04610987730563    1.07653060054122
H           2.68144829502284   -2.02073128770223    0.44526876589289
O          -0.99508985428304    1.23114389042437    2.21219308002650
H          -0.37840149923747    1.52910959348189    2.88384285976176
H          -0.76894872258684    0.28209306274823    2.03005660790219
O           0.65993566320256    0.50655791208266   -2.53004895643152
H           0.79058811658658   -0.31311237459297   -2.03180125511073
H           0.02887521420989    0.30395292314790   -3.22294412959737
O          -1.74661898763744   -0.26637324777774   -0.91427528093935
H          -1.00174389237474   -0.89743720761089   -1.01574281437588
H          -2.21441035962117   -0.55004682976277   -0.12360562948442
O          -0.39501941286323    1.77840544751902   -0.18274605587202
H          -0.71818926042510    1.75939417379283    0.79662492383082
H           0.51123800737050    1.25719049512403   -0.11561552618774
H          -0.99624409623433    1.10552622995264   -0.66989997397476
