    19
        -40.92246916
S           0.08674804250646    0.61000352112576   -0.87543764041779
O          -0.62935230251110   -0.73073327780910   -0.73565529777401
O          -0.71867527662555    1.63950984532442   -0.26078690903257
O           1.43059866065146    0.51800033132425   -0.39026907805485
O           0.11167634588127    0.82191681186222   -2.40486724593638
H          -0.84225029274070    0.93280255054847   -2.64537325069619
O           2.40765822595252   -1.60460150762971    0.93884001802549
H           2.84653256619053   -2.19334895624849    0.32255294483786
H           2.22460455182010   -0.77906358010199    0.45114012461649
O           0.02265163339330    0.93262902822840    2.23721763958649
H           0.95827103290602    1.14985434469337    2.23924589718235
H          -0.34830701342045    1.35901533270997    1.44572432207541
O          -2.47219683148788    1.04094440011520   -2.21249773675777
H          -2.21077581180302    1.50026494818461   -1.39785575298474
H          -2.78081469360478    0.16982409642597   -1.94768601589658
O          -0.17759742723391   -1.60877226678195    1.52134022926172
H           0.78352237479411   -1.82012981534319    1.44778002765790
H          -0.21097366759423   -0.75146911772332    2.01167320765584
H          -0.48132013706044   -1.18664668892556    0.25491452664010
