    19
        -40.91971869
S           1.38741488670446   -0.05554854304488    0.27685647837912
O           1.00695145796811    1.01112577387125   -0.75732221885162
O           2.79234079429284   -0.27753597775151    0.19191588613598
O           0.82541549352653    0.25834423068825    1.55370177636653
O           0.62629811015863   -1.33090291534222   -0.24362785883065
H           1.10566548243337   -1.54533162573180   -1.08427438490576
O          -2.18483852607885   -0.95519107843257   -0.02718625039770
H          -2.30791239642752   -0.65069802137080    0.88326208930387
H          -1.32002060272213   -1.38255439260184   -0.05662227862995
O          -1.70875441069094    0.79638184316268    2.13567073435398
H          -0.75987675413520    0.58453585139626    2.02306561470388
H          -1.83013042422388    1.00155537285745    3.06374278865514
O           2.27717513217696   -1.24933865640424   -2.23273170154567
H           2.86991469098947   -0.94648785645908   -1.52301392843756
H           2.09183561977448   -0.48009953183324   -2.77825322154773
O          -1.43461378165377    1.52883031442783   -0.53155748458923
H          -0.00146708843183    1.28466632532234   -0.68594849093947
H          -1.84465714073558    0.63116803929801   -0.59967703167203
H          -1.59074054290851    1.77708082796276    0.39199948243748
