    19
        -40.91647041
S          -0.15048284605484    1.19438022155068    0.16589462779869
O          -1.27952894929402    0.59646062368615    0.84201861986673
O           1.03100098130377    0.21389318099234    0.27766984028972
O          -0.33448556851846    1.57930050502633   -1.19082273290745
O           0.30326908553301    2.42611818074924    0.99069654747889
H           0.15198982081718    2.20908113986085    1.94518690513919
O          -0.78735381069336   -2.00045850276816    0.21385224439403
H          -1.18242718782648   -1.13565176532193    0.41366786841132
H           0.04141082078097   -2.01720973160436    0.70019801283275
O          -0.58738163417776    1.46624741523801    3.24544605566024
H          -1.04318789618405    0.92126160228362    2.57740743669412
H          -1.26171618718779    1.98745464606772    3.68809672949580
O           0.01790051535161   -2.13495694575646   -2.35633603443341
H           0.27621159843796   -3.04276381230293   -2.52421766460696
H          -0.39559211028663   -2.12170002261725   -1.46594020185306
O           1.62665371094189   -0.04634069958334   -2.12614527375657
H           1.41633830451127    0.07227965974142   -0.68866182409729
H           1.10826082258330   -0.86059218155865   -2.34426348557399
H           1.04912051997921    0.69319648632266   -2.36374766085417
