    19
        -40.91833198
S          -0.17650677021675    1.69595886659229    0.27110195083227
O           1.16113484831150    2.23351059215080    0.26623367054504
O          -0.54057093809793    0.97602525437423   -0.93343554438497
O          -0.43923258554833    0.89083803367231    1.47442088561408
O          -1.16753481610994    2.92842021338650    0.35981748823161
H          -0.76496438824919    3.48540851863525    1.01914763046162
O           2.09188766372717    0.12650940267433   -1.00433634700859
H           1.47800639402814    0.21854904873641   -1.73887836833777
H           1.93934834821334    0.93613619581906   -0.47198058009096
O          -2.15653966614899   -1.04800708519166   -1.01722793100749
H          -1.92428497101267   -1.54085526439278   -1.80694595315291
H          -1.66870779261665   -0.18661750999046   -1.07001573740086
O           1.43471330396805   -2.05517527874714    0.28267650014682
H           1.71897379639036   -1.25080031606638   -0.23481865780964
H           2.09738677866737   -2.17843022646739    0.96481037048345
O          -0.89046089540603   -1.49850911150558    1.14015826867657
H          -0.73632124900747   -0.45603340427369    1.36688584673721
H          -1.49336839013128   -1.46478546101299    0.31272067532754
H           0.03704132925232   -1.81214247842932    0.81966584213292
