    19
        -40.92174076
S          -0.31185758066906   -0.80276351368193   -0.24855736256654
O          -0.45163963833840    0.07421407163252   -1.37392690185151
O           1.08717802247866   -0.70794859269314    0.33180695954426
O          -1.29803291890364   -0.60763524395442    0.79319227537984
O          -0.39778935408856   -2.26369603412091   -0.74099707055472
H          -0.56724665748661   -2.81155751556890    0.06850621676136
O           1.44827019775758    1.84834165280853   -2.06967694301419
H           0.69211043566999    1.23853248958728   -1.97423777261771
H           2.05432545232312    1.43505560852927   -2.68671010948105
O          -0.96214345769138    2.07795071087386    0.73431804508797
H          -1.23129279186173    2.26289224914658   -0.16930225417203
H          -1.24658655965230    1.16670929659209    0.91416717940835
O          -1.13635399786128   -3.12639591532998    1.59350710208964
H          -1.30202418780802   -2.16819755441050    1.66600181239344
H          -1.98993209822479   -3.56296629848169    1.65238850622017
O           1.65953876332816    1.68297092180064    0.57584239601246
H           0.76465429287699    2.02420131556175    0.81134174307257
H           1.40829630401731    0.31859544241165    0.49457286007532
H           1.78052579415013    1.92169689933053   -0.37223670176736
