    19
        -40.91289336
S          -0.61683126390486    1.29111379264039    0.87849084373224
O          -0.28554335011949    2.67537168961144    0.73385061394563
O           0.71600104841039    0.49091088773827    1.11591557114932
O          -1.54555417744389    0.91628588702143    1.88756727111613
O          -1.11002585154962    0.73677707398217   -0.47623747467737
H          -0.36081206174852    0.33496593410237   -1.03054786650965
O          -1.18392126864163   -1.72322741261130    1.51582293199383
H          -0.50187280340058   -1.88526188158885    2.17080183897459
H          -1.47441511131931   -0.80527161899203    1.65944054152776
O           0.78803143014671   -0.44010322170568   -1.71397226391341
H           0.33426512675757   -1.31680006163852   -1.58703306016466
H           1.58433846209354   -0.48676988253984   -1.17725358947572
O          -0.57605185388573   -2.54309863354009   -0.97773946577963
H          -0.79660991078328   -2.28954734564136   -0.05429752630517
H          -1.41722052617194   -2.66678483220523   -1.42082191134604
O           1.97224850242491    2.08621864360505   -0.51434237124193
H           1.29225641799667    2.69391340211908   -0.16900189962930
H           1.40597394013698    0.98202443602779    0.60518310720637
H           1.77574326100092    1.94928315296731   -1.44582530086201
