    19
        -40.91930892
S           0.67488155695616    0.53896796399161    0.16475814369154
O           1.53582585605350    1.38672288802339    1.13671560208714
O          -0.10508536290482    1.42071417421320   -0.63886354935783
O           1.54481065165075   -0.38078633458878   -0.52708779042793
O          -0.23774599785428   -0.28016301438069    1.08665080256844
H          -1.21979502033744    0.07553882403729    1.05651857011089
O          -2.36686860958279    0.29950385844897   -1.74095085299462
H          -1.64177590601334    0.93935014671064   -1.76123469438500
H          -1.92626668754570   -0.56738004551531   -1.81107167601894
O          -0.64411598768058   -1.78875684036659   -1.37652563506576
H           0.22695752611056   -1.38383060879353   -1.25313181520151
H          -0.83590920069595   -2.26543348242376   -0.56564009134758
O          -2.55727139612526    0.62891387615274    0.82955253854826
H          -2.66004577398670    0.45999651163137   -0.15591016114166
H          -2.48871006257014    1.58261455404199    0.92135529757331
O           3.34446809169642   -0.46032401277735    1.41603760556417
H           4.23416828839692   -0.23961641486732    1.12898555471008
H           2.26367002364265    0.79740324181743    1.46282800693468
H           2.85880802074849   -0.76343528541462    0.62701415414681
