    19
        -40.91892657
S          -1.07012019667197    0.86824622423552    0.39856893602112
O          -0.57908394780302    1.64044136315531    1.51952913448880
O          -0.29736814192063    1.15071275178552   -0.82576011194728
O          -1.15961184723592   -0.55087535328212    0.63714239673900
O          -2.53734704355122    1.37317490787002    0.09353416614374
H          -2.49018774030144    2.31931840188569    0.19507363095638
O          -1.28936963802586   -1.23039415332183   -1.97249302200591
H          -1.57037737345837   -1.02799583676626   -1.06445484271655
H          -1.01666118633968   -0.38348990527863   -2.33765772167416
O           1.77658089827674    0.62581618035444    1.93112704498548
H           2.34070253690192    1.32311208306599    2.27264261105878
H           0.85803588255518    0.99817997906061    1.90401193292583
O           0.65419674510511   -2.29329501510271   -0.47968330958213
H           0.08632300041901   -2.10038143668160    0.28302430199348
H           0.04680852628782   -2.18055632805812   -1.24583502081942
O           1.82947917286765   -0.08576788824288   -0.50769568063982
H           1.45577346535020   -1.08424785178052   -0.52555488508595
H           0.98488464024380    0.49103080961050   -0.75356593469992
H           1.97734223561376    0.14697107205186    0.47804639118139
