    19
        -40.91624619
S          -0.45365688534841   -0.58709787045654    0.54239917376742
O           0.33133549067278   -1.64473421404162   -0.00912137217121
O          -1.53425696737732   -0.10776051743296   -0.28345452941891
O          -1.00266867478096   -1.03820144693258    1.91090876826910
O           0.45136994002143    0.60610430083312    0.90334837075706
H           0.45543438505632    1.22288258749785    0.06623927334904
O           1.52430383923307   -0.31138428654032   -2.26774546701452
H           2.30368444161146   -0.38982318996967   -1.68492714137866
H           0.94561698915065   -1.02916722892375   -1.98718904308993
O           2.93871663300678   -0.73861837946635    0.02033367899864
H           2.15488620253422   -1.29292441886390    0.15525425444042
H           2.85401548412723   -0.00830011272758    0.63770978738741
O           0.29450294270399    1.78567621471222   -1.29625811749594
H          -0.63168197305149    1.58705411583268   -1.47161732357175
H           0.81793178987882    1.11877146073113   -1.82008402457909
O          -3.03638359513509    0.56369873635996    1.78691046339885
H          -1.76517725339523   -0.43869380153108    2.12396251330846
H          -2.73776292995999    0.53655120524943    0.85868273393946
H          -3.91020987911817    0.16596685543075    1.81464797114840
