    19
        -40.90146303
S          -0.29121423729123    0.27343176573289   -1.56080208866831
O          -1.23798071316978    0.09405448137196   -2.60938463578209
O          -0.76656299363507   -0.40875751379123   -0.26586507809612
O           1.08846015210664   -0.00983055960233   -1.78675372147909
O          -0.36825715883862    1.80562770792690   -1.14060444362128
H          -1.21580599092365    2.16306786961568   -1.40056412763962
O          -0.18763269689894   -2.44126509684546   -2.27032129612026
H           0.67096129698529   -2.05635291257767   -2.46055459876632
H          -0.83686525755450   -1.86908703143943   -2.68899955805907
O          -1.46670741098241    0.84798382810186    2.09922971433722
H          -1.40487095400392    0.46610607408029    1.20981513291048
H          -1.89075382418196    0.18428180063273    2.64766316468080
O           1.23381083278566    1.15193788610902    2.36313404781889
H           0.25947046779287    1.22278028238013    2.31701656255011
H           1.46869065494759    1.14152918636383    3.29261001892360
O           1.43245351569755   -0.93791611980570    0.74561562161939
H           0.11290790443637   -0.76260160938265    0.22057627670443
H           1.88079901868383   -0.69382174227707   -0.07695302194024
H           1.51909737401268   -0.17116831659427    1.36514203063400
