    19
        -40.91398592
S          -1.14667051175765   -0.43948896764588    1.11210749388195
O          -1.50983083346208   -1.78321656804480    0.78802220623881
O           0.23734664822913   -0.28464974007876    1.57531636109350
O          -1.41880965187666    0.54428438831827    0.05433360560097
O          -2.06311410045994    0.02071411638273    2.32466955401843
H          -2.30651796201903   -0.77425823054338    2.79112852767478
O           1.98698986322239    1.40320872364637   -1.27060100361813
H           2.00793305080679    0.41082956988300   -1.07325549476973
H           1.57421695685709    1.49934614136948   -2.13212383560432
O          -0.76098757425945   -1.31402227164174   -1.81994390747404
H          -1.15206362383346   -0.54163997643827   -1.38356609481253
H          -1.13168078683684   -2.06283888020529   -1.33996831631145
O           1.64113844152334   -1.06420658252073   -0.64141798760387
H           1.29403455197870   -1.00887156769178    0.26359990937434
H           0.87298320268734   -1.30543966419140   -1.20308571864457
O           0.48484304810721    1.99635810978185    0.62826163427343
H           0.64545504777159    1.19029965793100    1.23709939950866
H           1.17209449544256    1.86128309895911   -0.18787487447734
H          -0.42736025204284    1.65230865289123    0.27729854167886
