    19
        -40.91790584
S          -0.12452810666202   -0.43231613744508   -0.92346926536969
O           0.76558374079159    0.76043897310702   -1.21891230530535
O           0.18474861742750   -0.98872345962166    0.36888141076522
O          -1.50361907681450   -0.08445811665035   -1.11183879554344
O           0.31059839580330   -1.44972506727154   -2.02381234807068
H          -0.26845092928053   -2.22738372793247   -1.88022416772673
O          -1.25647127189033    2.11371877156905    0.48772704410712
H          -0.88101283002139    2.76567943574461   -0.10790069912542
H          -1.55417219332428    1.37838016775244   -0.07011732117880
O          -1.55347645679961   -2.85695870037980   -0.82372175198587
H          -1.13538164151890   -2.71955047639749    0.03354471485468
H          -2.18855266331113   -2.13905938379273   -0.92864460533499
O           0.47473155587060    0.96845616403796    2.25744826205178
H          -0.19406185046154    1.55412096018003    1.85660819574383
H           0.25992544963705    0.08864171605746    1.91228772172902
O           2.45264031695605    1.04048898534618    0.59604797977315
H           2.88657414864500    0.19412322038779    0.73089005204746
H           1.53489757161530    0.89849453575760   -0.50460394380379
H           1.79002722328660    1.13563211962523    1.34980982240202
