    19
        -40.91793073
S          -1.26853241033554   -0.59202559369097    1.06229274825282
O          -2.01452903666647    0.46784639801862    1.70059329188327
O          -1.49857385266323   -0.62590642696666   -0.39131015417319
O           0.14725919221159   -0.57331111580102    1.36690539614682
O          -1.82593744022387   -1.96555997272333    1.61281384056573
H          -2.77242552372773   -1.89158462337732    1.52541973645110
O          -0.12107949214903    2.16326052335818    1.06455435138904
H          -0.94863514329486    1.76157308870329    1.41408983586473
H           0.57226029141883    1.59149065154890    1.41494242270655
O           1.78690846357718   -1.65955204532720   -0.35167526897481
H           1.11560070533837   -1.33769288472169    0.29608749942053
H           2.57126390896963   -1.85863404346573    0.16307509896417
O           1.78497046613362    0.31481912745582   -2.06561010936155
H           1.70757386296411   -0.07697700268803   -2.93787119950153
H           1.85221227070398   -0.44617593972474   -1.42591990349571
O          -0.40481514836951    1.36765696888702   -1.32988499845341
H          -0.94765463672719    0.49715655449389   -1.01933509165960
H          -0.24353998459078    1.85199507740630   -0.43402053575584
H           0.50767350741095    1.01162125861253   -1.66514695025272
