    19
        -40.92135276
S          -0.03059139175428    0.06817072493771   -0.88353843982156
O          -0.22707786942486    1.38996599248579   -0.32846812867694
O           1.35367298769982   -0.38199760438227   -0.77454511529578
O          -0.94589111135718   -0.90151785931767   -0.24882216642725
O          -0.40607548063217    0.12350153114354   -2.38943692560969
H          -0.01701185549452   -0.69491167903013   -2.77440492280438
O           1.13245357514158   -1.94178135353021   -2.88526884258420
H           1.85474840641149   -1.80745733322927   -3.50358643811410
H           1.43464722839994   -1.59584455949695   -2.02257468321952
O          -1.85434664932177    1.76194716749583    1.68346462823960
H          -2.75337012569424    1.80090555945409    1.35155052757603
H          -1.26501405823519    1.78987771869947    0.88991665397357
O           1.54079812661183    0.33014752711706    1.75346760445349
H           1.64689558411577    0.00204595326261    0.83201498207645
H           1.47851650925708    1.28649862465108    1.67381243351560
O          -0.82891760944215   -0.52091423541158    2.16118632867508
H          -0.93656144767754   -0.81885970661535    1.10055306567020
H           0.15972828983964   -0.25471593156930    2.19086847485672
H          -1.33660312885701    0.36493946131575    2.17381095240271
