    19
        -40.91669054
S          -1.10866945806212   -0.25542957377172    1.00602860197140
O          -0.61146323103552   -1.23873902845273    0.07044379230892
O          -2.37948175874053    0.31116884954821    0.71584150432281
O          -1.14441365943442   -0.87300554747047    2.42598866475713
O          -0.04827089694657    0.85980358563120    1.12506843349397
H           0.77763852863387    0.59948229379116    0.57337101866375
O           0.86354793556947    1.81402526656080   -2.10976823764552
H           0.82327055486734    2.72644221632979   -1.81855982990864
H          -0.06085234721499    1.48867684053135   -2.11389476206616
O          -1.61931166876134    0.76374814330723   -1.85021299752484
H          -2.04891867098735    0.78062564227940   -0.98019436289973
H          -1.65516694137838   -0.15191028780703   -2.13631027961759
O           1.76833999078732    0.02339735400303   -0.41680493526455
H           1.20980772117180   -0.71225335290035   -0.70299439000362
H           1.65193677415792    0.71484124608822   -1.11735757675084
O           1.19135738647673   -1.97796249690674    1.93589564285403
H          -0.29010743013621   -1.34746862920745    2.55038554372795
H           0.73387418756241   -2.11336797742370    1.09217985366981
H           1.94688298354820   -1.41207455408839    1.75089430588954
