    19
        -40.91749335
S          -1.13392609805424    0.08529930021062   -0.63869597850466
O          -1.47149507948498    0.64120729814259    0.74339319813148
O          -2.33918423110688   -0.19461185345842   -1.35344738714129
O          -0.15708962664773    0.92280367065413   -1.27389818042339
O          -0.41987311315593   -1.27826240829203   -0.33793206957217
H          -1.14762576178406   -1.92202544139667   -0.14154593502819
O          -2.67782164571477   -2.55088549443472   -0.20207381183604
H          -2.85205948809813   -3.25157259538408   -0.83557007965860
H          -2.94408067134675   -1.71419460530265   -0.62748758924609
O           2.51366803518462    0.88566989617193    1.53968382201278
H           3.36454016676558    1.32425262307682    1.59177307026948
H           2.50401033816705    0.39314678142597    0.68600773938214
O           2.21662198982654   -0.29549416783197   -0.83738296570425
H           1.89670773566063   -1.19087603937311   -0.70138185577471
H           1.44040530514931    0.20391385649486   -1.14934181728524
O           0.35311315275969    2.33134430557644    1.05475431119911
H          -0.76349886820990    1.35437811284147    1.00175424005187
H           1.14659173289270    1.83357130228648    1.38030008791189
H           0.47099612654769    2.42233544801562    0.10109121196165
