    19
        -40.91907726
S           0.29433581720643   -0.72294635873736   -1.47354940619076
O          -0.34246555928071    0.59888377222622   -1.29250283873719
O           1.68242302094592   -0.59776780058857   -1.85204899905946
O           0.06381348846397   -1.56477218656012   -0.32207448919715
O          -0.46474712789512   -1.38649238090364   -2.69399684793916
H          -0.02126872009537   -1.05797820718381   -3.47174889240904
O          -2.20694065573078   -0.44246545891894    0.41874729881905
H          -2.08685079619718    0.15034057236081   -0.33453092770136
H          -1.51272165631829   -1.11584564092761    0.27627803006326
O           2.33467747581671   -0.36921034149604    0.67773502245293
H           1.76737946671162   -1.10985112849431    0.92881366950932
H           2.39242840634958   -0.44605805159879   -0.30087643359480
O           0.73509494853287    1.58493906340623    0.71350874552948
H           1.48869661188071    0.87527055979285    0.81833462672178
H           0.27138322585961    1.28781122285621   -0.18651728004610
O          -1.10256732809948    0.94828615675018    2.32674082044303
H          -1.71452664352470    1.62810316751916    2.61462073742789
H          -1.60703165468373    0.35049086836223    1.70141237726054
H           0.02888768005909    1.38926217212832    1.45165480664065
