    19
        -40.91965990
S          -1.11841170119625    0.70999770813465    1.08491557832176
O          -0.56057598581536    1.90073338024256    0.46308322530590
O          -2.06229289998784    0.04122698342598    0.17585666620408
O          -0.11325073750252   -0.20009890071695    1.57513972802425
O          -1.97218791745215    1.18620371217841    2.31874388947309
H          -2.61346743759734    1.76811296952848    1.92256998705185
O           0.76857509492406   -2.33846745793775    0.14237771938251
H           0.31928073664212   -2.01385660290719    0.94008995836043
H           1.59158444799944   -1.79174760403554    0.11999893108733
O           2.34418640078317   -0.22728021161731    0.32324597054657
H           2.17601783947024    0.35209835947301   -0.42879917456230
H           1.66815339568013   -0.00333002150251    0.98363371259323
O           0.72947759219204    1.11184237917464   -1.60412180640267
H           0.26964861816182    1.50244272328011   -0.80511545205670
H           0.63640879021631    1.75458558758632   -2.30978290930335
O          -0.63108028305447   -1.07779511436538   -1.49340530851912
H          -1.34944810664326   -0.66464155027490   -0.82599531964320
H          -0.04372681607405   -0.28508033462094   -1.71061422981786
H          -0.03889102090043   -1.72494599493209   -0.87182118616477
