    19
        -40.90608429
S          -0.41425392868007    1.58265966456250   -1.37181591283577
O          -0.64288897538024    0.47014434272243   -2.25353912241584
O          -1.66386931571492    1.82901522289807   -0.52203871597537
O           0.76030801660555    1.51910474288233   -0.57038329333296
O          -0.36625359024478    2.88529794674875   -2.23523997928139
H          -1.08807604783624    2.82662344073201   -2.85763955341361
O           0.83730895713633   -0.49563963891886    1.23786426171891
H           1.07067500113438    0.28299174881050    0.70489891790579
H           0.63584776323773   -1.19449237314330    0.59523943900974
O          -0.60197322870526   -1.76466529473846   -0.79506538323488
H          -0.59881832428630   -1.01832884356377   -1.42658153555642
H          -0.44131086475051   -2.55816367769727   -1.30882186644157
O           3.11446373075602   -1.74496493986492    2.37059881313084
H           2.32523128211879   -1.29407881330256    2.03451673271915
H           3.36243790032254   -1.28534332150208    3.17388503601348
O          -1.78405387438404   -0.09165052862625    1.08319741564336
H          -0.86581535286896   -0.15304560572995    1.43907783257457
H          -1.77601959335591    1.07387314365338    0.18998064467825
H          -1.86293957598935   -0.86933720430265    0.51186625811757
