    19
        -40.92218952
S           0.61326234220115    0.30682397382372    0.93278105287434
O          -0.42223677333062    1.28037025734671    0.60137010228585
O           0.05086698387989   -1.03444333596823    1.05356767840774
O           1.70743705460562    0.34068349322576   -0.03766774012129
O           1.23187724642151    0.70126702101187    2.30561731797260
H           0.45607687673218    0.65895936246598    2.90264201258945
O          -0.93337132736522    1.46084034118961   -1.93412983383061
H          -0.74677582623716    2.36795968667543   -2.18569314836942
H          -0.84604353083626    1.42632673090181   -0.94345623482765
O          -0.16239094580905   -2.29645393179822   -1.20112038032005
H          -0.16932127120743   -1.87635599239092   -0.29896781378927
H           0.37429320732172   -3.08802433145663   -1.12104622437711
O          -1.27290722160130    0.32850540948645    3.02099012334306
H          -1.18114947248509   -0.53174661411992    2.59025659802053
H          -1.48335908220826    0.94196481863869    2.30453861712108
O           0.87530175633632   -0.26518140044252   -2.28171558244838
H           0.10771990107201    0.42836060865763   -2.31857254451566
H           1.36733936645172    0.01076883843236   -1.38107283830583
H           0.43338074604168   -1.16062493568463   -2.00832116169064
