    19
        -40.91015952
S           1.61609325769397    0.19700294326145   -1.01516654197701
O           1.65075308183324   -1.27063481072866   -0.60536794458376
O           0.36627062987849    0.50558280051431   -1.65371245096428
O           2.00317631788382    1.06389782343854    0.04838791021946
O           2.73768040037556    0.23861832044720   -2.11243909736850
H           2.39012441207709   -0.23691757075295   -2.86393228629793
O          -1.39547692516285    0.60889559281422    0.37780090197857
H          -1.05323366759167    1.36702858404830    0.89025064389993
H          -0.92347002902935    0.64956270238755   -0.47362586742692
O          -2.53432182610717   -1.99857371358184    0.04441904702887
H          -3.43010933217257   -2.17084423910331    0.33750649944198
H          -2.43140391429454   -1.03686842822112    0.01792225295121
O           0.18260337232989    2.50056407895556    1.47019040528769
H           0.27988075756759    3.41580765117493    1.20198561292599
H           0.94150903068588    2.02295435931410    1.09057113335099
O          -0.07662278765226   -1.55078282079673    1.15638771082851
H          -0.74151514308905   -2.18005142057433    0.82964526955388
H           0.95936701059164   -1.44689950484090    0.17734001653942
H          -0.54130464583579   -0.67834234774776    1.08183679459185
