    19
        -40.91237550
S           1.60852654077491   -0.00638825521793   -0.61013995929273
O           1.26761126313907   -1.38007359202423   -0.38978111557434
O           1.16131068649150    0.44716370304357   -1.99675692391259
O           1.20112546618504    0.91545365878612    0.40240540967235
O           3.16853777080341    0.09387391071229   -0.74601438051985
H           3.44347650089966   -0.63777436030047   -1.29451327110307
O          -1.50718850069477    1.42994178738088    0.32671337163704
H          -1.86373330509716    0.71249354111722    0.90053945997535
H          -0.55925946540156    1.47291470712153    0.52483109051544
O          -2.11149607375668   -0.75763629618286    1.73604561367158
H          -2.38522881481827   -1.50907502361287    1.20771586151758
H          -1.20631832507338   -0.96423088062417    2.05749889330087
O           0.50896401999809   -1.15465832292253    2.20449604145775
H           0.84270609572457   -0.25354282569648    2.25046675899152
H           0.76936327099629   -1.47132661507778    1.32444297718173
O          -1.32458488377976    0.52604167004728   -2.05156254831080
H          -1.50679691628100    0.88540280598707   -1.11582527476277
H          -1.61824985411177    1.20568497873830   -2.66338252880800
H           0.11123451398303    0.44573540877803   -2.06717947561601
