    19
        -40.91832169
S          -0.26973602050440    0.15789783331924   -1.35831456422249
O          -0.40186600795699    0.60178217018144   -2.70666156540087
O          -1.19208799363778   -0.82242918243637   -0.86650536328021
O           1.17260150831375   -0.32624385732173   -1.13450875304628
O          -0.37886401920124    1.39630756568046   -0.40285556491591
H           0.24182840544124    2.05540146927142   -0.80099100877560
O          -1.96436854808324    0.06890954681832    1.57148722418614
H          -1.84515328069231    1.01268013824790    1.43899341768731
H          -1.85680698016115   -0.32566654917195    0.68768175401976
O           0.21731905039430   -0.95310088699011    2.71665774859496
H          -0.61181686877390   -0.52831583852776    2.39293124844950
H          -0.02340773878129   -1.46503439286503    3.49066900446798
O           1.33653823178127    2.51906930461718   -1.99961071133202
H           0.80958933478440    2.02756241745861   -2.65159140935363
H           2.16895740813718    2.04640255834618   -1.91369558462737
O           0.81120016917432   -2.20834667859739    0.47395089517695
H          -0.08795120842824   -2.36088090918039    0.15821470468056
H           1.15680843694352   -1.11867991367693   -0.45940726002954
H           0.71721611128143   -1.77731480515738    1.36355580767253
