    19
        -40.92217278
S          -0.56390849454386   -0.29953220195823   -1.22404150945658
O          -1.83423022025397   -0.91234432510213   -1.48708267155590
O          -0.68017240910195    1.04261678212154   -0.63937527340398
O           0.38565951671055   -1.10825039376141   -0.48027351975818
O           0.13860823435613   -0.06698761350176   -2.64224852922699
H          -0.57946050777133   -0.05453357369615   -3.26810554102651
O           2.56931750845431    0.32919768535208   -0.47246750803662
H           2.65199974954778    0.74529379907824   -1.33273880597782
H           1.87943451111661   -0.36654340853647   -0.57166330272170
O          -2.31004686025683   -0.45967962390075    1.12274630524839
H          -2.26532767055465   -0.77567299317495    0.20297571993509
H          -2.60370960067134    0.45270391684172    1.06537770435797
O           0.12493255556733   -0.79878764786864    2.17076960722327
H           0.39334911349771   -1.29884262324959    1.37974727997308
H          -0.84862193107700   -0.72061929673751    2.06266562362327
O           0.93371623191522    1.35912980130630    1.20767895229153
H           1.75965337126073    1.08052847217232    0.68803650853524
H           0.20168360994219    1.35481933717785    0.44595992023617
H           0.64712331183011    0.49750390749079    1.77203901968836
