    19
        -40.91398605
S          -0.71292882875206   -0.52599314550526   -1.39954455624279
O          -0.07894367152357   -1.52684237798665   -0.53354446038411
O          -2.12062096566428   -0.38261991876485   -1.19848991165345
O           0.04910824398347    0.72933148897765   -1.33158585506074
O          -0.49627473528277   -1.04024714693669   -2.88647891933779
H          -1.29563174596201   -1.49988264693971   -3.12842260716695
O           1.88827723628509    0.48891256941867    1.93276354560992
H           1.78468268397820    1.44045629183474    2.00791327406950
H           0.97414908614894    0.08818258331772    2.09783935897691
O          -0.50688683681259   -0.44377148398403    1.94434562212743
H          -0.50619298052947   -1.04885930011768    1.18516152097976
H          -1.02658864550832    0.33781769262516    1.65671405561920
O          -1.61820950999772    1.61752380744510    0.62577222646170
H          -0.98808064074228    1.59751048336609   -0.11072918055600
H          -2.41048054432515    1.20609397587190    0.26319105868499
O           2.08373348764597   -0.31401871378871   -0.41947380667136
H           1.42076709449266   -1.09246345653487   -0.39462235208034
H           1.43366679877414    0.33028293775892   -0.90590444100043
H           2.12645445379451    0.03858635994013    0.59509541760428
