    19
        -40.90494131
S           1.05581555768161    0.71536766690728   -0.43608325256215
O           2.06248924334417    0.94914059699863   -1.41504725136604
O           0.30737229612831   -0.60086156679130   -0.69742364745417
O           1.33163074721385    0.88346433015075    0.95128445309074
O          -0.11067420026263    1.77641907636652   -0.74525896109680
H          -0.11222628933484    1.98783892223945   -1.67789278406965
O          -2.08269289011776    0.74266625684673    1.10480874278028
H          -2.44618030248925    0.39370612991772    0.26901566423743
H          -1.48279580869836    1.44949282980864    0.84636421319393
O          -2.41599819003272   -0.51774677461038   -1.31005954708819
H          -2.80768335624592   -1.39327221204566   -1.29093193666363
H          -1.45610225989655   -0.64306448545834   -1.33599819426239
O           2.92795615829469   -1.12621214865505    0.08405381982753
H           3.17225744779561   -0.55442269611899    0.81522717835068
H           3.11625400668873   -0.63551735420628   -0.72074490477300
O          -0.36616505215109   -1.17774288904508    1.62071121539117
H           0.37452599001524   -0.73340654688256    2.05102319955719
H          -1.11567875808444   -0.52265407243914    1.62901855683293
H           0.04789566015509   -0.99319508294267    0.25793344598118
