    19
        -40.91930407
S           0.67614466778866    0.53146598867488    0.76041673403173
O           0.40341699875843   -0.88803454043932    0.66929440996641
O           1.37834411390793    0.98438316934464   -0.52616902340999
O          -0.45597141693293    1.34974619254468    1.04431881930293
O           1.76145524959277    0.75825142603223    1.83031457932250
H           2.39027098513654   -0.00544645488502    1.74627041281289
O          -3.02249969930178    0.77470632544613    0.36203588800695
H          -2.16857909952127    1.02406932807108    0.75741727084499
H          -3.35223416355361    1.56282760684756   -0.07401541792884
O          -1.66486234452323   -1.01973985824608   -1.12044791581228
H          -2.34985378945282   -0.50563982243575   -0.64430640279588
H          -0.99633488882857   -1.22368900811558   -0.44754940672314
O           2.85058068996005   -1.55685564483007    1.40215516816351
H           1.96991398074099   -1.65883930612404    0.99479872711658
H           2.88276569376375   -2.15530182286320    2.15287616724054
O          -0.27373196380463    0.72798694004601   -2.41269015821188
H           0.13913943630835    0.30012157422329   -3.16645277666869
H          -0.89538169848995    0.04814497556114   -2.00390043018699
H           0.72741725748590    0.95184292128114   -1.32436664431185
