    19
        -40.92175601
S          -0.84077472542919   -0.48134231403046   -0.40131461161497
O          -0.77414929350003    0.89673642284158    0.02830400649434
O           0.56447860367238   -1.11855802904994   -0.21006968441087
O          -1.83659712174216   -1.26192557809712    0.25967260762665
O          -1.01352960485759   -0.55989301750770   -1.91333962460200
H          -0.13149208744677   -0.25883032895882   -2.34503025120927
O           1.27064769352104    0.18287293729728   -2.70937279258743
H           1.83288694556241   -0.44370819491903   -2.24474067278606
H           1.35892566478416    1.04091343661737   -2.22276527212347
O           1.17013867622246    2.28288707729968   -1.12162546815702
H           0.46958527526669    1.85259665022723   -0.58712588224496
H           0.80720940108644    3.11869644756466   -1.42092186548275
O          -1.48642089774577    0.06028100811251    2.58225415907342
H          -1.29242205298341    0.86460750971481    2.08743092361457
H          -1.95241691819126   -0.50336082159675    1.94336374320033
O           0.70938404462108   -1.37251442233663    2.32120147895777
H          -0.05051099906004   -0.79310158788184    2.59054252627513
H           0.46964320706445   -2.26594825489202    2.57890956426893
H           0.72541417915669   -1.24040892039952    0.78462713570332
