    19
        -40.91636818
S           1.13733955115622    1.01122135826971   -0.18171075613123
O           1.69298711584888    2.21290335636286   -0.70441158362547
O           0.97356923989184   -0.06579301791588   -1.12096300034837
O           1.89433865728123    0.55197148459477    1.05275456418598
O          -0.29545036639837    1.31733374377369    0.42265667064911
H          -0.76876773441417    1.72281601505278   -0.33918998500147
O          -0.71477343994582    2.19254126846859   -1.99381981162580
H          -0.64433402917599    1.41554027169204   -2.55579988187123
H           0.17663586773042    2.56213047683439   -1.91794693414423
O          -1.17450015501392   -1.64623741668864   -1.18226459074819
H          -0.89196139303070   -2.53871102100331   -1.39020932304344
H          -0.37061211813500   -1.09090913689734   -1.23132517729614
O          -1.52799871773746   -1.04733332270520    1.40475477644083
H          -1.60008734167014   -1.36112236281192    0.47655209230230
H          -1.44639306556072   -0.08896762327405    1.33577309100642
O           0.95234981441601   -1.62038084788906    1.91416952004933
H          -0.03328513471605   -1.49617230051568    1.76649567524654
H           1.55513007166184   -0.36924084833597    1.38052339994584
H           1.08581318781633   -1.66159007702055    2.86396126398178
