    19
        -40.92217276
S           0.91338891293696   -1.03511494240442   -0.04838915559415
O           1.94376952351043   -1.34867739583204    0.89954513870485
O          -0.44758106969443   -1.09639932315714    0.45470978523114
O           1.15121364392252    0.22510081597734   -0.76408379041324
O           0.96916108942925   -2.16390085778840   -1.18032414963243
H           1.85468203245570   -2.51175666394389   -1.12998837075290
O          -1.24235710784736    1.23627533407787    1.51247781427975
H          -0.33500968318263    1.38525069426024    1.85939713524710
H          -1.28503175874729    0.26802868315640    1.41993628320096
O           1.39226166523270    1.07628578503910    1.92671068111478
H           1.92908530058789    1.61443357381718    1.34008469239220
H           1.64878710482128    0.15558175854231    1.74121104923962
O          -1.92775942397563   -0.68321148285560   -1.66021629096134
H          -1.52361160668465   -1.14263456060355   -2.39885686674119
H          -1.48800445263045   -1.02970324037059   -0.84999170712656
O          -0.92302674309435    1.56060245320894   -0.94294307583069
H           0.02526833581294    1.09572196231025   -0.93497618940390
H          -1.49822960156703    0.82756489289682   -1.34505712968708
H          -1.15700615127164    1.56655250371909    0.10075413663981
