    19
        -40.91059528
S           0.01054679601059   -0.36371041129749   -0.85237440629056
O           0.93671194207869    0.71462641589355   -0.60896371039584
O           0.57205156522510   -1.56565890481675   -1.37203893248526
O          -0.74325161311812   -0.64547316289993    0.46801341942794
O          -1.11477243479792    0.11877009732699   -1.78876413584670
H          -1.32458558999438    1.05279013103681   -1.54854708048393
O           2.27862393788285   -2.62747345767331    0.42229025229321
H           1.77958853740613   -2.32992627308511   -0.36100755198290
H           2.05774195048298   -3.55240013619427    0.55047511054159
O          -2.91257513382991    1.30829884023848    0.79358000162946
H          -2.36803173877885    1.98654781909739    0.38321362787213
H          -2.37849679924823    0.50935937277877    0.83058704812092
O          -0.89279967386097    2.57642152168319   -0.89028243075981
H          -0.03996842912361    2.15521195505838   -0.66415979498109
H          -0.70414413947703    3.30806624947260   -1.48261184797290
O           1.32421910970112   -0.64927034450283    1.90101098316389
H           1.74654391916562    0.11787458951199    1.50016048401267
H          -0.01485003893728   -0.67727997191684    1.19337562558956
H           1.78744784319232   -1.43677431974229    1.52604333844102
