    19
        -40.91398610
S           1.13121437049442   -1.16494829570202   -0.32710103308174
O           1.93732611040832   -1.26736376760456    0.84865151464626
O          -0.26049688455026   -1.59234482512453   -0.14328755556694
O           1.15384539150155    0.15433922696972   -0.97538927724920
O           1.74693194033158   -2.14892851206795   -1.41120919401727
H           2.20475722290991   -2.82822113115596   -0.92362096296738
O           1.29403115211779    1.33615064466543    1.47063336339325
H           1.37534937452574    1.17446056073929    0.51818162248982
H           1.84604515981797    0.65406631105435    1.86886742053486
O          -2.22540172990217    1.59479623052107   -0.20501680197666
H          -1.93818503986742    1.09762167509800    0.62820742776139
H          -1.79784763569762    2.45370747779008   -0.16865194776798
O          -1.14746908462757    0.23601031289037    1.69147524826800
H          -0.91300375403377   -0.59792851588526    1.25326277338106
H          -0.29911120510753    0.71303855019303    1.82013253852182
O          -1.15780108252898    0.01395548099280   -1.80999667755463
H          -0.15742352391581    0.26255395897983   -1.69980748092468
H          -1.09806557674315   -0.82042888956343   -1.22191801584786
H          -1.69469521512493    0.72946347719270   -1.21341297202697
