    19
        -40.91832167
S           1.32423986046043    0.18249358001787    0.39108046397441
O           0.58734043388266    1.33321086286072   -0.37752606602181
O           1.30075680204739   -0.96494427317508   -0.46710394062299
O           2.58543003452701    0.66573016762898    0.84778349058976
O           0.41512309221003   -0.05876741520369    1.60766956187750
H          -0.19516108556694   -0.87876593184181    1.41018405649579
O          -0.88339541930101   -2.06187124264719    0.85791064503762
H          -0.17969850154960   -2.34757846143644    0.26242403924156
H          -1.60303986049776   -1.70330256922358    0.27534580073688
O          -2.52040836282222   -1.05228508186747   -0.94788688827232
H          -1.82395861876954   -0.75506482202905   -1.57973375354893
H          -3.09895567800959   -1.63963278750870   -1.43721933996446
O          -0.43366112788081   -0.34827087745822   -2.45337666430783
H          -0.34218855741366    0.60783422642609   -2.45105977766394
H           0.27552094561779   -0.67113187445040   -1.86924300856535
O           1.20600016923299    2.81623964711676    1.66472691174200
H           0.71187673533814    2.49381304767003    2.42342274049470
H           2.01017445859737    2.27306844471522    1.61175525705983
H           0.66400468990628    2.10922533039992    0.23084648169994
