    19
        -40.92158931
S           1.20723219616124   -0.00358643373361   -0.84918357973508
O           0.93356802802133   -0.88861448608440    0.27319830194641
O           1.14055629677925   -0.62303197074897   -2.14490666672440
O           0.38085538355941    1.20760960211496   -0.76389537270592
O           2.70486997677848    0.47136373679326   -0.64205886097747
H           2.99534112784119    0.71191766723082   -1.51648468211613
O          -1.71946991321676   -1.13910252807281    0.40980745819342
H          -0.77519459989636   -1.39092804879070    0.43234526159616
H          -1.89888569610176   -1.01186565951610   -0.55197742527887
O           0.77216466208316    0.27292361870745    2.61446227574157
H           0.65846988393687   -0.40051958489853    3.28819926144752
H           1.04259242581444   -0.19530290441240    1.78964193293286
O          -1.51822923537159   -0.47327243147153   -2.13864478304750
H          -0.56873699818004   -0.64905077685913   -2.28808273804059
H          -1.62821196031001    0.46894000529830   -2.28635514632430
O          -1.15168306440401    1.15949740515901    1.18162143158769
H          -0.52621827214676    1.32323188981555    0.34803596119563
H          -1.56550093187576    0.20479598961652    0.92584724409497
H          -0.48351930946373    0.95499487984563    1.91843012620934
