    19
        -40.91317297
S           0.48813138489518   -0.71531887884876    1.37055959728963
O          -0.21315177951191   -1.70461026597464    0.45493861199663
O           1.42889131547697    0.06412340988203    0.60546037729894
O          -0.44097868075365   -0.00876589697120    2.17895229268207
O           1.33598406531464   -1.63430444955860    2.33239782466954
H           2.13573171993015   -1.89781991769256    1.88044671768095
O          -1.62629217659453    1.01410743277625   -0.13502778890292
H          -1.60745416110115    0.49576079670543    0.67622307564292
H          -1.04963211290463    1.78183258778143    0.04826786425787
O           0.33486144391889    2.56252902837104    0.91287958522139
H           0.92000271298653    1.80608321704399    0.75650283062555
H           0.05126840271913    2.48707496527153    1.82750762424988
O          -1.16643237569304    0.03971555770370   -2.57741879842103
H          -1.38392358187731    0.46793053345096   -1.71832125627370
H          -1.94629757988567   -0.45506097201462   -2.83432106231026
O           0.89337767729141   -1.28049024385080   -1.71174058714425
H           1.45875582084284   -0.58175644926454   -1.35493401467566
H           0.23233341451480   -1.63166972310875   -0.51489227336673
H           0.15482451004684   -0.80936073173565   -2.19748061045340
