    19
        -40.92136374
S          -0.51435205786798   -1.21288555258932    0.43022784582268
O          -1.27768026328137   -0.11663030962626   -0.12199164600616
O          -0.47758991603998   -2.38959204320689   -0.40200738051467
O           0.83298949038220   -0.76657118681647    0.82692422299915
O          -1.22776631466079   -1.62281898806778    1.78818523100984
H          -1.01990224232872   -2.54706847804191    1.89252010910624
O           0.11551601223194   -0.89790138247530   -2.49218514598161
H          -0.06571829371510   -1.60125402190685   -1.82819442104518
H          -0.73444092174230   -0.47935383373746   -2.65483620023523
O          -0.13886921782841    2.23293114132155   -0.34190932805364
H          -0.80542574053651    1.50849441843122   -0.35395080367001
H           0.06666710253952    2.31599029673175    0.61544645227138
O           0.19709324786765    1.45920674830825    2.18597127384561
H          -0.61471120550948    1.26630600668209    2.65811546019168
H           0.51722138091804    0.60497221148487    1.83970870152721
O           1.60179511809994    0.64146582344230   -1.10150309441746
H           0.92923485258695    1.46832577516488   -0.85237034393704
H           1.49613697356947    0.04633972990661   -0.27100348917887
H           1.11980200523392    0.09004364522590   -1.81714744325898
