    19
        -40.90685337
S           0.97801526398991    1.52032894395048   -0.30698061723274
O           1.90026354700725    0.38865446028171   -0.72229012740210
O          -0.10264436001472    1.67090910301691   -1.23962913539248
O           0.60716239292412    1.39867636897828    1.06967448169564
O           1.91249331590667    2.77295028440236   -0.44518207078118
H           1.97956005026857    2.96316108715205   -1.37869319594895
O          -3.70387430975338   -1.39874908549752   -1.59240631075450
H          -3.47674106311940   -1.28096884793315   -2.51588487719718
H          -2.92915620032273   -1.12038925118539   -1.08489986434106
O          -1.42072074748669   -0.38889114182557   -0.20208454824492
H          -1.10223291436096    0.39325613283167   -0.69249429843026
H          -1.69957741854041   -0.07093473499914    0.66069902266111
O           1.03813541883366   -0.80361692233259    2.55616651364720
H           1.83188320135468   -0.70454016578888    3.08444430229878
H           0.83652976997106    0.07584843924124    2.18545409945707
O           0.89085954856599   -1.71192395423235    0.07845010229140
H          -0.05214315433866   -1.50238699764302   -0.09699258962363
H           1.51490132876806   -0.58808287904652   -0.41294851360743
H           0.99728634038493   -1.61330082938483    1.05559763707388
