    19
        -40.92221080
S          -0.27244926474568   -0.40540236683218   -0.93414042006554
O          -1.25355390605891   -0.07599358763014    0.21533107592534
O          -0.26478983630317   -1.82420042545188   -1.09954193820059
O          -0.56373379738092    0.39015296876085   -2.08515481153266
O           1.09323248061363    0.07610795102318   -0.37844275772762
H           1.19130276516943   -0.33751184465489    0.54658255534307
O           0.21194143073493   -3.32815394779478    1.03306949057688
H           0.81767622916576   -4.01965047400656    0.75914048086940
H          -0.09230683148975   -2.89010801549795    0.21104858833189
O           0.60223929697222    2.69797656844851   -1.47381599068574
H           1.45470945667714    2.39718442770915   -1.14907090104257
H           0.21260973923365    1.92739673692126   -1.93236366704336
O           1.03078213817938   -0.98986005156104    1.92448534243509
H           0.24429351796501   -0.60683233089010    2.32259211894100
H           0.79814561303150   -1.93173535521439    1.72335565011558
O          -1.27933344551380    2.46532988686404    0.34102712263534
H          -0.53737132043285    2.70080530675348   -0.27817420939904
H          -2.07877235137385    2.81951612913212   -0.05543211882940
H          -1.31462191446681    0.93497843393261    0.30950436936177
