    19
        -40.92161575
S          -0.57406201791151    0.18547564731973   -0.87931141518227
O          -0.53184227195539    1.60817847790487   -0.63162754340537
O           0.85367861357778   -0.35964328439674   -0.85243992500178
O          -1.42332198352617   -0.55697726813694    0.00217261201000
O          -1.00509318346178   -0.06848142838690   -2.33877668270772
H          -0.41314483692159    0.51979919180150   -2.87239473311621
O           0.80069647437115    1.68914130404041   -2.97544845434633
H           0.46319742612503    2.09749647978107   -2.16199509924914
H           1.64049397776525    1.27988258107892   -2.74834483497916
O          -0.29739725113280    1.20975785064822    2.03118733775552
H          -1.14261075027360    0.78015951669993    2.18508543613006
H          -0.36678205585953    1.60224711005765    1.14463523039881
O          -0.49934770496285   -2.50406457542905    1.62561083314814
H          -1.18225239051917   -2.85009098397546    2.20228950803878
H          -0.94192088523354   -1.92010179657691    0.98264846118794
O           1.47997386314020   -0.70823842024621    1.51626210289338
H           1.21132998651096   -0.53795466920104    0.15295696569138
H           0.97179700877418    0.04492446514710    1.90005065798896
H           0.95660800155138   -1.51151019823611    1.71743953280934
