    19
        -40.92159002
S          -0.61853765488327    0.51148993610987    1.23894194052194
O          -1.46331722565984    1.67232287525748    1.16448049841885
O          -1.06571707375212   -0.62934961109882    0.45408880171570
O           0.78649820209366    0.82232272769190    0.94434392559362
O          -0.65041815363572    0.01163016560514    2.74236867113196
H          -0.71022308608845    0.81306286982414    3.25326908610387
O          -0.35021900950107   -0.14054647947585   -2.06977312454906
H          -0.89825569535660   -0.43556419419864   -1.31605341446451
H          -0.40004602799475    0.84331893297206   -2.01675338573240
O          -0.41637412914064    2.34900427498041   -1.18861122895526
H           0.44254952155872    2.66636916236198   -0.90011294458208
H          -0.93575098714835    2.22855480933448   -0.36967887626037
O           0.59713822245229   -2.64900746130813    0.35358862268329
H          -0.11596909605245   -1.99944170235438    0.55949230908086
H           0.18303321336220   -3.36886752187212   -0.12670092051390
O           1.72640030510637   -0.66526212316515   -0.79897543376845
H           0.94073038100179   -0.46510650240688   -1.49898215033069
H           1.46413899757314    0.00224485562862   -0.02515475373014
H           1.48433929616129   -1.56717501387356   -0.39977763228593
