    19
        -40.91749347
S          -0.46171568346406    0.23604250027421    1.19665528502493
O          -1.08935994605576    1.34497535853094    0.35442436670286
O          -0.60461668340491    0.54490545787337    2.58452968698376
O          -0.92898809822085   -1.04253885732840    0.74268970522265
O           1.06404513002995    0.30178993295120    0.83923428333262
H           1.42874591260443    1.05644157599302    1.36834938646527
O           1.01209514752151   -1.97057419793127   -0.89438392816091
H           0.28126120847277   -1.81362830343895   -0.26951428454219
H           1.75140206027409   -1.46927099113488   -0.54146011606093
O           0.01278272439178   -0.66920103152091   -3.00176490584557
H           0.46819072091949   -1.18410134227086   -2.29554721247010
H          -0.11356037203564   -1.26908118197199   -3.73863189317491
O           1.50919801999332    2.13328855738102    2.62396737928840
H           2.10735189122630    1.93597089831135    3.34916157532110
H           0.62921376188833    1.80480928635783    2.88778251357835
O          -2.07513511583109    0.03046346150208   -1.53798727590578
H          -1.52585930781032    0.92281498563647   -0.48728831978316
H          -1.33906462810302   -0.12617512487339   -2.18372965410871
H          -2.12598673232531   -0.76693098435595   -0.99648661186811
