    19
        -40.92037955
S           1.00253972316830    0.30922904411256    0.24870374187301
O           0.05560265852669    1.41087759247411    0.19670227947128
O           0.46166454641887   -0.76879183200906    1.17076411738689
O           1.35676241997602   -0.22720278662303   -1.02655069338214
O           2.27566438419099    0.79768738321419    0.97051717021853
H           1.96196795826162    1.37661820369441    1.71000071875636
O          -2.13074596444586    0.38874566055733   -0.97282266919426
H          -1.34104786721778    0.86232927410196   -0.64698242919681
H          -2.89235537497212    0.85716246688730   -0.62526882831489
O           0.94108513460846    2.46857744185488    2.45173327149180
H           0.33047731989741    2.26949201483000    1.71736503494760
H           1.19761977117530    3.38977167978671    2.36188019101395
O           0.26248623309950   -2.41775597652750   -2.14378482807203
H          -0.08807865232346   -2.12556067953921   -2.98785058579937
H           0.82961254714867   -1.69226993457148   -1.82240110753146
O          -1.31101185166687   -1.97951518522539   -0.05817748999478
H          -0.31721614107406   -1.35501252842094    0.70176596156204
H          -1.79484079529896   -1.20779189319455   -0.42967721992829
H          -0.80018604916568   -2.35658995611010   -0.81591663560901
