    19
        -40.92453846
S          -1.43670079064246    0.36245879675449   -0.35674559024338
O          -0.73766590914030    0.05569423439701   -1.59992991739944
O          -1.49374613727414   -0.81022594847030    0.50828038360789
O          -0.88994173683473    1.52202680945995    0.31601417384765
O          -2.92407396440868    0.72898519919188   -0.74181234998206
H          -3.26249405546377   -0.04546983530740   -1.18192494687327
O           1.42747570080792    1.59444274074368   -0.85401446464885
H           1.15051402721004    1.23953631738403   -1.70704280332592
H           0.57297168655718    1.78341900688559   -0.39401100975725
O           2.06225683576057   -0.39035400788557    0.56423892361798
H           1.60369590368674   -1.14679081983272    0.00743955692422
H           1.95019476488489    0.46813402326758   -0.02391777621943
O           0.63844416660480   -1.98008817421854   -0.77517264214648
H           0.13695404724459   -1.27857008631568   -1.26347964590914
H          -0.01106542748456   -2.33277977182056   -0.15557385322510
O           0.24593228744657   -0.01974196479121    2.27158331986916
H           0.03825078816229    0.92182623074697    2.25932958047662
H          -0.48973953087087   -0.42650422778271    1.74894383796109
H           1.41873731366630   -0.24599850225063    1.37779522411468
