    19
        -40.91250067
S           0.09472364889884    0.33349541646070   -0.99137565695147
O          -0.30368669971771    1.39508279548398   -0.11118503123190
O           1.49954340218929    0.03937939764476   -0.96967032512662
O          -0.70212600230081   -0.94360447330045   -0.69035634675613
O          -0.37793498599660    0.64417531473040   -2.44086031422062
H           0.11159057301331    1.45577483407347   -2.69192468802521
O           0.02029908545904    0.00309314140308    2.25580251451248
H          -0.02934763786916    0.70483177919588    1.58867966512338
H          -0.89790956251187   -0.30774887336373    2.35463272202318
O           1.32474139848832    2.60733478309267   -2.06332372810308
H           0.88672945160019    2.91972489039177   -1.26412519948043
H           1.98957446376324    1.97197911876540   -1.77255768892879
O          -2.37701276955249   -1.17111539740745    1.61950603994822
H          -2.13868377284046   -1.02109538093927    0.69610834815553
H          -2.42710187453784   -2.12158882008007    1.74080369922781
O           0.93984489314088   -1.99090521129705    0.85100706021345
H          -0.06322396009662   -1.54002278764941   -0.08585505091302
H           1.72837508588156   -1.65334808185027    0.40867469188180
H           0.72160526975406   -1.32544245618270    1.56601929959569
