    19
        -40.91335373
S          -0.97926191228157   -1.23776044503053   -1.05990309075088
O           0.24835365897786   -1.77341446040566   -0.57822800155577
O          -1.92337128045339   -0.78715371512405   -0.08228449425754
O          -0.72572313777240   -0.12344359182075   -2.09248875483325
O          -1.68065004985007   -2.31363603843687   -1.95597936522661
H          -2.57760742819886   -2.01055920056413   -2.07836804463817
O           2.18603930455812   -0.04002684688677    0.25221479997374
H           1.94145701258231    0.03226253168055    1.20525233701954
H           1.74430838015059   -0.84720253610849   -0.05554606417289
O          -1.02258711105574    1.33170849643093    1.39839251565165
H          -1.49662104598528    0.59191448489180    0.98545363052568
H          -0.57224933574729    1.79097949018687    0.68045797520349
O           1.00708150107290    0.08097314966094    2.63859514363836
H           0.24470518419753    0.62236596128148    2.33442219539873
H           0.64347276439883   -0.76617628771585    2.90094226981768
O           0.65284023166811    1.62347334333446   -0.90858034734122
H           1.15999972721420    2.17502043065484   -1.50823577054272
H          -0.18207926258051    0.62691197494524   -1.65044228738337
H           1.33189278256105    1.02376326749867   -0.42567458179255
