    19
        -40.91521787
S           0.54136915053820   -0.82120072411992   -1.26216007999032
O          -0.74379517676590   -0.22107069690976   -1.53019898116714
O           1.57087287887857    0.24921445660094   -1.00696273935659
O           0.56410169799247   -1.81752077305053   -0.24039527395941
O           1.02457419191619   -1.48769194937584   -2.60133156165671
H           0.92662818953000   -0.83754026961224   -3.29392166341256
O          -0.99007224278199    2.20979252593678   -0.31278897271338
H          -0.87949660751212    1.41306784795885   -0.85848332255151
H          -1.91194725545920    2.46495625279013   -0.38756003984724
O          -0.33457063963972    0.95066582702815    2.00013716148732
H          -0.49054806004577    1.61924068119427    1.30498988977793
H          -0.97462763848109    0.23652526118980    1.80005081691906
O          -1.84624741219630   -0.99817336117189    0.87046305194480
H          -1.33634414248826   -1.81021961381600    0.94293482521646
H          -1.71317760271894   -0.70675747568012   -0.04370715258062
O           1.92887356040594   -0.04897955574891    1.38652225050262
H           1.08403195366158    0.40718769084890    1.74832727799109
H           1.74436032886249   -0.99715345744229    1.40039286515012
H           1.83601483254292    0.19565732649494    0.08369162855166
