    19
        -40.92079119
S           1.27387203923983   -0.63000654795819   -0.43331268855320
O           1.11276298200716    0.75854550937958   -0.86929712146305
O           2.14873911767355   -0.75405571403937    0.70398488289382
O          -0.01866496183835   -1.28034110707109   -0.26770135250356
O           1.96302230916056   -1.38731088634513   -1.64007715385282
H           2.84766934446083   -1.03521188455787   -1.64511494971300
O          -1.22673584941328    1.55166555310134   -0.71452111570201
H          -0.19640472030655    1.35878443662593   -0.82600435022403
H          -1.63703242709488    0.86579651594281   -1.34012402020152
O          -1.86607659641771   -0.57332764141314   -1.99019629042933
H          -2.66166081520100   -1.07408738811685   -1.79891801922846
H          -1.13798360381693   -0.99510726387355   -1.47550102113140
O           0.98510944055277    0.81981438715862    2.47997039141334
H           1.29778949212592    0.56311718657897    3.34959622832635
H           1.50475873026031    0.29142195161650    1.83604224873975
O          -1.36786666557072    0.27761982834188    1.42306124273733
H          -1.00065634888588   -0.50936541211705    0.97176520016371
H          -0.61950669970728    0.60088766282471    1.97791164218507
H          -1.40113475704242    1.15116082367193    0.25843623624177
