    19
        -40.92217270
S           0.83359217909107    1.09695123083177    0.10007027110839
O           0.47014187292025    2.46199925009893    0.35148022676502
O           0.50513328028601    0.15174463455275    1.15255629825771
O           0.37272088268553    0.60764090514737   -1.20555691316978
O           2.43030875496036    1.05420712831982    0.01170129520423
H           2.68317328622080    1.94696943536966   -0.20397001098729
O          -2.04086528060146    1.62023354296336   -0.12230358973802
H          -1.22117612632430    2.06169373355935    0.16253797672568
H          -2.04040926681996    1.67352234910337   -1.08099931544485
O           1.55526792969489   -2.09910216884833    0.33720524847461
H           1.28994241835481   -1.28509031159805    0.82403601341299
H           2.40052691166817   -1.90102093246198   -0.07055645233786
O          -1.96525445129487   -0.85673794127272    0.87642914770374
H          -2.27871507838293    0.01294213991439    0.54298940447546
H          -1.18168550903838   -0.61977958904737    1.40320193228656
O          -0.56948603120119   -1.67247348630959   -1.02718631714405
H          -1.27280187119961   -1.45618876479506   -0.25120206988072
H          -0.19907758607148   -0.70655296897385   -1.23984135294693
H           0.22866369511450   -2.09095817655451   -0.56059180276070
