    19
        -40.92071431
S           1.16378526283572   -0.80358629072648   -0.44085594540597
O           0.31048733888326   -0.13174883716208   -1.39351944129062
O           2.46973952842823   -0.20329404287079   -0.29334956861963
O           0.47844776725995   -0.94332631700399    0.85941401709777
O           1.39439329911917   -2.27723934627119   -0.96215190354950
H           2.23434273899460   -2.52400812107662   -0.58575225867532
O           1.48240793741215    2.22107886466630   -0.28054158548553
H           2.03019296489455    1.40096089483172   -0.25838237658431
H           1.14947411660283    2.27397170996703   -1.18129175695663
O          -2.11341581933346   -1.60537326722807    0.65361307945770
H          -2.41914280872970   -1.96542891314467    1.48745455278413
H          -1.14120640562694   -1.52667236374464    0.72212953004959
O          -2.02400065646653    0.75705226724594   -0.57681513306088
H          -1.28165702710059    0.44443778817886   -1.14372080651216
H          -2.39160867199115   -0.07089596905022   -0.20236825240350
O          -0.41150231561471    1.38691416480339    1.19279680659418
H          -1.22444040133849    1.24187613662326    0.46933957844834
H          -0.03381822649411    0.43416945425255    1.25204584599929
H           0.32752135872043    1.89111218771919    0.68195562768944
