    19
        -40.92267750
S           0.38389864976704    0.89857769587676    0.42345581455111
O          -0.00096023003771    0.69750190913050   -0.99587246688757
O          -0.81166488994435    0.99527880146051    1.24785990221891
O           1.28612542357131   -0.14361369462291    0.85756181948130
O           1.14565434715235    2.25197916695889    0.47741878365961
H           0.46021418731993    2.90189541029816    0.20525753920703
O          -1.18724786117700    3.17820433745840   -0.28498837617220
H          -1.20629877139424    2.68370045545664   -1.11071343305957
H          -1.46247445857941    2.54905174253600    0.40096164463124
O           1.83852143191295   -2.24209583747250   -0.59104328847864
H           1.78227397646488   -1.48963401178992    0.04836299830744
H           2.55033187907710   -2.02860740509488   -1.19742914990323
O          -1.32438364809933   -1.57500676076753    1.21665491813647
H          -1.27767576996996   -0.59624418298097    1.33447381482303
H          -0.62837753533114   -1.93179370709090    1.77543776075406
O          -0.56262865778858   -1.68287840623549   -1.20434613032688
H           0.37850203002919   -2.07298578274814   -1.09195960257710
H          -0.99763532438737   -1.77938450329488   -0.27474845071610
H          -0.36617477823548   -0.61394522712337   -1.23634410779240
