    19
        -40.91598480
S           0.77719174007722    0.59301108650897    1.18469536695019
O           0.47121560789541    0.07269877878452    2.47690500253165
O           1.62582942303991    1.74328183797032    1.09465789538004
O           1.35894234837629   -0.48372876278579    0.27209778387235
O          -0.60757412868168    0.93988716360694    0.52095914376881
H          -0.43099002536026    1.41255419265289   -0.30981817030292
O          -0.43628964884408   -0.21795694067868   -2.42684364974154
H           0.07795817816069    0.56932363129309   -2.20188829956571
H           0.11809368096112   -0.74383853571211   -3.00727132238660
O          -1.65012321088116   -1.51066007349486    2.01218603760835
H          -1.61315481528396   -2.21521255332916    2.66278673246950
H          -0.97699527066403   -0.85648352691328    2.28117562851222
O           0.86305567434856    2.11123175139339   -1.39525426037608
H           1.39391126729934    2.05722712144413   -0.57258330753512
H           0.86499918662512    3.03311957738518   -1.66371174529864
O          -0.51598219480468   -1.99386150171054   -0.33760450349461
H           0.63063844522176   -1.21427087216503    0.03132321393268
H          -1.10935782435783   -1.86728512451242    0.44103133586161
H          -0.84136846305791   -1.42903724979365   -1.06284288220354
