    19
        -40.91971853
S           1.28031559416305   -0.57891646024729    0.16461518696737
O           1.51216755671812    0.41598726504790   -0.83588425728924
O           0.07388731689332   -1.45131233262534   -0.34529684296189
O           2.35936086408731   -1.43459937477876    0.53049482992791
O           0.72027597341375    0.05967932517837    1.44141022160038
H          -0.01984967109785    0.77108838053811    1.23356552453058
O          -0.18515398595980    2.24289561349411   -1.74858037406610
H           0.49930745258215    1.59038735113002   -1.49636266610564
H           0.22151386861378    2.82357239276011   -2.39314147948552
O          -1.08180306167267    1.68576723271052    0.81846962564608
H          -0.69922400134928    2.30569190737269    0.17913444118238
H          -1.68119742526731    1.12743564307819    0.26411113280718
O          -2.07648152847204    0.22695380523317   -1.14906866532238
H          -1.47229296281326   -0.52405389507771   -1.09963710403140
H          -1.66097708261049    0.87349289032583   -1.73703901106453
O           0.50435777262506   -2.90187661886867    1.75205227742526
H           1.42157243106485   -2.65937864734734    1.53580133532366
H           0.27294888387945   -2.40926873030653    2.54415654018232
H           0.01127200520839   -2.16354574760407    0.34119927474832
