    19
        -40.92246920
S           0.37446950868403   -0.02136231549931   -1.00305111006761
O          -0.92210885417431   -0.42447346920798   -1.49581428536548
O           1.11994311628844   -1.04845418803825   -0.34057546499294
O           1.21377581250093    0.54481469251029   -2.16914037920857
O           0.20490781340850    1.19298295752753   -0.09379975594792
H          -0.11074338803242    0.91833516362096    0.92308514307883
O           1.76901866365753   -0.99563422345259    2.26782867506727
H           2.65042054331575   -0.63303543741194    2.37076377635661
H           1.64495459105294   -1.15595764868101    1.31302364510361
O          -1.59769580680215   -1.62237223164582    0.82727852809639
H          -1.55017632020848   -1.27965384183646   -0.08169868053981
H          -0.98040026946542   -2.35720084330894    0.86452957090229
O          -0.48394325830949    0.39454732792946    2.13317990054274
H          -1.07997699846766   -0.33626754116310    1.83851038614842
H           0.34105741897414   -0.05737584379085    2.43102074880348
O          -0.89043477917421    1.96679240023193   -2.72851427781276
H          -1.32116770238630    1.13920509106314   -2.45908052321317
H          -0.99042869229298    2.57854870775524   -1.99371870929614
H           0.60852860141397    1.19656125342732   -2.60382717766796
