    19
        -40.91930400
S          -0.97130059819742   -0.52597130943080   -0.30906979677180
O          -1.55869881602596    0.45337497654552    0.71520149468021
O          -0.05143881947483    0.19095797511915   -1.16777442873461
O          -0.42970048701295   -1.67782648872010    0.33259137715830
O          -2.20816686321710   -0.92621727229914   -1.13583369586129
H          -2.37481574487676   -0.17171891056594   -1.75938298129577
O          -1.97958515730201    1.11886050598899   -2.71517964062323
H          -1.09853781354387    1.07485074505106   -2.29842097968912
H          -1.85892886925727    0.91683132752476   -3.64635821465323
O           2.11956515652568    0.60861424788835    0.44805376566988
H           2.38217901102285   -0.31504751339578    0.64346192113327
H           1.51697082653352    0.54004425135310   -0.30919914621148
O           2.17790185852891   -2.02529107345246    1.01259385623028
H           1.25300536317618   -2.06294827473714    0.71113934962574
H           2.16577219001271   -2.28307494667216    1.93648105016389
O           0.32945583945659    1.19404600813723    2.21202351473615
H          -0.83713254996791    0.74672021458949    1.38980743998232
H           1.11239517565009    0.99731952292669    1.60855607239209
H           0.31106027781872    2.14647599431731    2.33130903185155
