    19
        -40.92048090
S          -0.72056480044763   -1.38978101587187    0.35518238201789
O          -0.84011017974058   -0.84670784027947   -1.00666861986046
O           0.63226727251341   -1.82650136376013    0.62448436484631
O          -1.24826989965519   -0.45518323650498    1.32842996066730
O          -1.62976459856977   -2.68412295192495    0.40575598337045
H          -1.02807285137307   -3.38636762452353    0.17620000768480
O           1.39785825236823    0.15145009934773   -1.87662971232257
H           0.61198981492268   -0.37895061847612   -1.58672331818477
H           1.25432815119513    0.36715262679692   -2.80051872092486
O           1.16184836999451    0.39474837327737    1.89052098416458
H           1.38818196697108   -0.47412383157321    1.49696020383816
H           0.20604060381523    0.27279833450973    2.06151048035849
O           1.02149646854763    1.91331828345624   -0.09209384348759
H           1.32301427568934    1.28991792696160   -0.85188949794118
H           1.17900330902057    1.34997777393050    0.79807283097621
O          -1.46529998648012    1.61317788813614   -0.39640073294730
H          -1.84862169990758    1.43040731221757    0.47049898614076
H          -0.01824180881843    1.94740053595049   -0.20552993657553
H          -1.37708266014778    0.71138933831165   -0.79116180183837
