    19
        -40.91971865
S          -1.19227886852710   -0.27266207160061    0.71477072034475
O          -0.67058166201013    1.15638725273908    0.90880920184713
O          -2.13711538567691   -0.54610681381170    1.74569595109836
O          -1.58841729048293   -0.48396464376589   -0.64280249132739
O           0.09634674707380   -1.14657670135277    0.94434517036357
H           0.27610553065210   -1.02381878289461    1.91136139413844
O          -0.06257735827597   -0.36453474600783    3.40427991878334
H          -1.01114239210703   -0.43524061702513    3.19936704149620
H           0.13349536980652    0.57461302525084    3.46121910214078
O           1.98661615187067   -0.68410177842308   -1.12940465698034
H           1.46697768048825   -0.78219932864295   -1.94010761018523
H           1.48652526788182   -1.12414244153927   -0.43102035582757
O          -0.16509204891537   -0.04902307872490   -2.84205417021536
H          -0.66124449918806   -0.24667993513932   -3.63757745587739
H          -0.75367191198188   -0.26537599963892   -2.09055107410624
O           0.88966355655654    1.71539453308558   -0.97078010240571
H          -0.03287936089523    1.45026293611987    0.13163760160366
H           1.53197752249369    0.96353818495424   -0.93973732149526
H           0.40729293091058    1.56423098504966   -1.79745085338381
