    19
        -40.92048044
S          -0.42050771202827    1.49892616911675   -0.38636009133808
O          -0.11815390454061    1.18001204833744    1.01762984595922
O           0.77354020498270    1.43821780323116   -1.20144548335391
O          -1.51519019697602    0.68542810787197   -0.87416947749139
O          -0.90767157382986    3.00420011744867   -0.41139029497222
H          -0.10315634416743    3.49671451881791   -0.54538492036544
O           0.44501647185140   -2.11771106176254    0.15783402481234
H           1.17519376441199   -1.54660598602636    0.60167675180638
H           0.36992491699356   -1.73691176197686   -0.83459247771294
O           1.94386076852674   -0.38807761243307    1.25042636922741
H           1.27230599454381    0.33302817446153    1.14188873574631
H           2.13446682166390   -0.44253866651169    2.18933219724546
O           0.16116394583689   -0.95519570712953   -2.03830650114227
H          -0.71991872358586   -0.55592529680862   -1.89299537363977
H           0.73552002240731   -0.16482267160042   -1.95066299911003
O          -1.54105213354735   -0.99730630999640    1.23826810382847
H          -2.17954024739277   -0.79570965299261    0.54278613366095
H          -0.43181915846672   -1.80049998051798    0.63283734630492
H          -1.07398290649482   -0.13522223176932    1.36262810036654
