    19
        -40.91413655
S           1.09109950952964    0.13851618630018    0.06946339056486
O           1.08536913538227    1.25857134954290   -0.80863656622490
O           0.89034748796020    0.42355432963760    1.46939596226409
O           0.00219069622064   -0.87620203748091   -0.36540470973622
O           2.39636857790134   -0.66053146482298   -0.11711899732147
H           2.50095238251769   -1.22793932867123    0.69257179233913
O           2.30877559047937   -1.65013670368140    2.27663353158224
H           3.04245115319019   -1.43148641366017    2.85664531400858
H           1.67233621032247   -0.91175813452063    2.33053196804847
O          -1.70091083512787   -0.30331802480161   -2.60308503560155
H          -2.45419788469943   -0.86241914261649   -2.40192580479397
H          -0.95392662882149   -0.65342379212160   -2.10162174366600
O          -1.55067296795164    1.98723418484050   -1.08875308329808
H          -0.58169851806066    2.03323674263851   -1.06419342667710
H          -1.75004829671046    1.40281416011711   -1.84201302241217
O          -1.86741106319524    0.26550183407282    0.82852455587103
H          -1.35157699232160    0.59708989343913    1.57134017430284
H          -1.92306825852668    1.01797118209817    0.16627584247939
H          -0.85637929761466   -0.54727480030944    0.13136985814183
