    19
        -40.91241714
S           1.17010333474271    0.82586150974811   -0.35309455382323
O           1.38070051275027   -0.30261916211775    0.55493971048616
O           0.82621638894549    0.38211280954046   -1.69320051535581
O           0.22654807282578    1.77852683284852    0.19010004557359
O           2.55832020224371    1.57085911276733   -0.45044315614716
H           3.15473891266317    0.92340877659283   -0.81689008822380
O          -0.87345249369994   -1.21021292164651    1.06202667555039
H          -1.32956052459520   -0.92959439231040    0.18777135613264
H           0.13977414617073   -1.06388769574325    0.83981773328500
O          -1.71219855305472    0.03065465719891   -1.01190274143677
H          -1.98535117937331    0.89440535928987   -0.68983795927969
H          -0.84506149723279    0.17832965165255   -1.44717620098689
O           0.18302367323281   -2.26323168916074   -1.39023328228931
H          -0.44928662435737   -2.43153973996978   -2.09110725495680
H           0.58791108582843   -1.40643061334210   -1.58819301307491
O          -1.00531425514759    0.97198148827784    2.33284310130210
H          -0.55919597026131    1.42076976767710    1.56818876901257
H          -1.05631580725112   -0.43332101281046    1.71573659337798
H          -0.41159942537913    1.06392726695116    3.08065477970979
