    19
        -40.91899955
S           0.12211059809362   -0.28182357021174    1.17752813738697
O          -0.49048167466404   -1.45914132074630    0.59887633659970
O           1.56543050241121   -0.29592459144378    1.10910866827803
O          -0.41675400809712    0.94140036610934    0.51080864804089
O          -0.28088054729188   -0.16883912438078    2.67253187884615
H          -1.23997845904975    0.02992857051667    2.63800786845561
O          -2.62430671812943    0.80435254089818    1.96622653862227
H          -2.01520122766547    0.99052915049598    1.22752848407728
H          -2.86705445890921    1.65189830818600    2.34639745219629
O          -0.63211396699705   -1.54455518652816   -1.97210533856812
H          -0.69812211748889   -1.60440718435505   -0.97874479918511
H          -0.00360429713903   -2.22083773253850   -2.23494606391786
O           2.62552445437943    0.16358158594007   -1.19532176756673
H           3.30592678427885    0.82692781798910   -1.06312097976609
H           2.32233176573683   -0.10188987740366   -0.28373295599685
O           0.26903398543797    0.80219376233322   -1.85724978568242
H          -0.14440605975043   -0.12929632025237   -2.07199376103469
H          -0.07370359545140    0.97259975460976   -0.86044357984111
H           1.27624906029680    0.62330306077630   -1.72935498094184
