    19
        -40.91714006
S           1.16357136115797   -0.35868550989727    0.53815163948130
O           2.51385828908797   -0.27857955986607    0.99054097731985
O           1.18446055681647   -0.85827270373318   -0.91504173244444
O           0.22489002052452   -1.09591375264788    1.31921593566193
O           0.58465065403729    1.09966852827612    0.39627975439808
H           1.30177880790788    1.57819382285826   -0.09340616812468
O          -2.11422804993930    1.41005841205249    1.22850015053746
H          -1.20601423806587    1.43390841546862    0.89851177734667
H          -2.06207346414264    1.51722488024722    2.18032423522091
O          -2.35560500255750   -1.20850884298233    0.51263690100300
H          -1.52985698082649   -1.37816173805615    0.99758295233439
H          -2.56769298470165   -0.27813693071840    0.71641693155221
O           2.80110947476117    1.65370016425638   -0.81360901231554
H           3.12280388105666    1.01448910940604   -0.15321083529354
H           2.83587402488259    1.20639878305688   -1.66338815500470
O          -1.15332295616155   -1.19783196238660   -1.76771135320529
H           0.22507775089940   -0.99404947876862   -1.28850964532185
H          -1.24409970827114   -2.07443556221060   -2.14806207833863
H          -1.72518144657026   -1.19106605441675   -0.93522226483732
