    19
        -40.91451126
S           0.88025059362995    1.23656319230379    0.28604484207618
O           1.89030678470448    0.47812693937048    0.95414589969284
O           0.88476803868986    0.92570007034129   -1.19951771250880
O          -0.45007066261142    1.17879456622418    0.81037289957526
O           1.31772377765774    2.75428092309517    0.34662837081314
H           2.26586438327306    2.79778095073484    0.23721616931028
O           0.48475731054627   -1.81565916825475    0.20600596583382
H           1.22411995103008   -1.19926916869677    0.23479136290927
H           0.09073759853156   -1.76914731085263    1.09932955121786
O          -1.46601140844565   -1.73121042172919   -1.62007430169589
H          -0.77302647347465   -1.82852428412695   -0.92772169561738
H          -1.14153609735458   -2.20109285931543   -2.39005384604111
O          -0.24100552230414   -0.86089366973046    2.63699915358120
H           0.64592335362750   -0.66917708717084    2.95140974788010
H          -0.52091162895947   -0.07592470029838    2.14224941196552
O          -1.52714195488453    0.86524680784182   -1.69217082436059
H          -0.13949338860685    0.93816341426704   -1.53392107648974
H          -1.64413700578094   -0.12747813487494   -1.75165433877600
H          -1.78111764926391    1.10371993087886   -0.79007956937318
