    19
        -40.92071449
S           0.49498702562204    1.37000915617289   -0.27222884177138
O           0.85985665204623    2.17432660265141    0.87126259287320
O           1.33779238220746    0.21392674136790   -0.47281536302353
O          -0.92639718115839    0.97310167048058   -0.22760460592451
O           0.64056335949713    2.29362989160355   -1.54585654081826
H           0.44536559760612    3.16709318446335   -1.21845919899043
O          -1.59258800006993   -0.89412063467678   -2.03488254250941
H          -2.54401375090340   -0.90047843806120   -2.14927271775625
H          -1.38044663587913   -0.10484291023765   -1.49797745754556
O           1.24593501832169    0.06840305883573    2.37725389639498
H           2.00928620421301   -0.31792180182527    1.93795205143560
H           1.14633370599546    0.96416211392676    1.97620241555397
O           0.21224519450170   -2.15983357985919   -0.53836845811784
H          -0.45488919603713   -2.00354405833341   -1.23974141099465
H           0.84726489032317   -1.41580354367145   -0.65398088659007
O          -0.83734075716780   -0.97426602927066    1.36417492189613
H          -0.03551576955812   -0.65582628835228    1.92711037625654
H          -1.05128907502650   -0.14960099725539    0.79159776335208
H          -0.41714966430041   -1.64841413788186    0.60563400607762
