    19
        -40.92071426
S           1.22335101714054    0.29801110591421    0.78268322271303
O           2.17246513253004   -0.77831071144017    0.95070428636239
O           1.02348135744039    0.63036065190771   -0.64191288061124
O          -0.04660169262374    0.07143609046926    1.43301024790561
O           1.87026931064286    1.58388784453820    1.43410578668165
H           2.80628638267545    1.45914073762302    1.30540328111937
O           0.34786801715619   -2.60834167024240    0.53271733937968
H          -0.20531904438073   -2.47729505482018    1.30849408703474
H           1.16010053355256   -2.07570725320275    0.70516405612969
O          -1.04553327961187    2.27480982026315   -1.09998772629808
H          -0.95760035497549    2.65773182887924   -1.97416681501489
H          -0.20348578613777    1.81548688238631   -0.90944750084920
O          -2.23106653990309    0.14467209193566   -0.02611517664571
H          -1.60770588778396    0.16504164951364    0.73615040228084
H          -2.12236590431905    1.02913024764813   -0.43560161654270
O          -0.59323557920942   -1.16892015736489   -1.33702785241438
H           0.13223667329345   -0.44969915830837   -1.23721010509358
H          -0.28017343971148   -1.89767468030674   -0.67964862945737
H          -1.44297091626401   -0.67376023572532   -0.84731441672023
