    19
        -40.91503879
S           0.14501836656075   -1.66239592446900   -0.39229995584955
O           0.36444770664760   -2.20508944947332    0.92546111376875
O           0.31724491989431   -2.51546778087485   -1.51657030500094
O          -1.13710118326537   -0.90668832284509   -0.43822565484901
O           1.25582034139140   -0.49244690174078   -0.53305122912662
H           1.42610704707413   -0.48538234417118   -1.47282606502600
O           0.41789849616670    2.22248297829536   -0.37008383797756
H           0.08343223122850    1.86213545878722   -1.21903136881972
H           1.25398491692908    1.76849453765621   -0.21850197736599
O           0.57826974098268   -0.34360456749002    2.67493379209719
H           0.28326539471910   -0.72042387846768    3.50675116146416
H           0.61831499600755   -1.10460903478318    2.02808995176631
O          -0.47089363684527    0.69507922771122   -2.41082255643196
H          -0.83585135404231    0.02448212328081   -1.79505447222161
H          -1.10286316654838    0.78717433719651   -3.12548763168618
O          -1.06171720168734    0.90598327307615    1.22643286467748
H          -1.21011189381791    0.09724870990594    0.54002403350869
H          -0.41441599410055    0.49886997574005    1.92661516245757
H          -0.51084973726578    1.57415760269833    0.66364699453022
