    19
        -40.91340016
S          -0.71131197690491   -1.33908284450582   -0.64807046442818
O          -1.12203226466299   -2.67952141284962   -0.41970695382666
O          -0.91676023052091   -0.91047581365088   -2.08598994486738
O          -1.28523716785994   -0.35463782025139    0.25052817726278
O           0.85320136976131   -1.23581438206553   -0.49575083667613
H           1.04876258103424   -1.51918517375010    0.41456172486504
O           1.45154528186156    2.19135351385624   -0.72997112451091
H           1.65618047661719    3.11702519392442   -0.58568190210481
H           1.27616679399443    1.80207094403870    0.15210810031882
O           0.56129948185794    1.10679243047701    1.57025563630040
H          -0.19190931989047    0.64981857606883    1.15253283445667
H           0.99724020046874    0.45248783153072    2.12072412641851
O           0.19564401064410   -1.97035594557456    1.98670176212837
H          -0.62503229504148   -1.48270784114158    1.84296084674468
H          -0.02852358925463   -2.89541561294983    1.85021237968476
O          -0.89878685690720    1.57908384149912   -1.78231909210396
H           0.02681247492365    1.82839544185386   -1.52687881186670
H          -0.88931500533261    0.12794873746856   -2.10739373383862
H          -1.39794395478251    1.53222031608273   -0.95882271393610
