    19
        -40.92246921
S           0.03356722124262    0.65248469808531    0.84787478913870
O          -0.59255019066350   -0.73707491964050    0.76233125621939
O           1.47012008346696    0.51752094737765    0.91522524816548
O          -0.45010940405048    1.49047870860862   -0.20734036850938
O          -0.49682277758312    1.17884400693598    2.19922639428918
H          -0.07050519538445    0.58765843680500    2.86922864123016
O           0.97143307528844   -0.67986013664254    3.27195237449364
H           0.57281680929176   -1.51134691319318    3.00011346069802
H           1.55915065830671   -0.40620039935336    2.54889518328500
O           1.69496373600973    0.02862263846205   -1.73065293291658
H           1.84214741832066    0.20414393502555   -0.78546964512902
H           1.42069597824016    0.86529890241823   -2.11421533125471
O          -1.93094997451788    0.60931486433979   -2.27156193454917
H          -2.86070054066906    0.74146388828673   -2.07906420117383
H          -1.43412617451881    1.09277929243233   -1.58437438275278
O          -0.46846173171663   -1.49125864888815   -1.58029607412585
H          -0.56853312720922   -1.14834901989685   -0.25686554786426
H          -1.11197520419768   -0.87696616776546   -2.00658519323416
H           0.41983934034833   -1.11755414336971   -1.79842173599268
