    19
        -40.92071444
S           0.48626095775793   -1.38649837270783    0.19480857209453
O          -0.40940899783448   -0.94502028904544   -0.89278262454292
O           1.81008125482831   -1.69240832315694   -0.29641718713249
O           0.46595837982002   -0.43790676946103    1.28412603090009
O          -0.12734294764965   -2.74070060990188    0.72980001466923
H           0.27000134093036   -3.40658081372881    0.17578798794659
O          -0.93993508310405    1.76432273889067    1.00193007481509
H          -0.44254630050714    1.00902908512042    1.39212992063224
H          -1.80938802342063    1.37299120824793    0.77278418920263
O           2.54872463983221    0.81768155981850   -0.20927525474391
H           2.53019801352396    0.96728124960477    0.74060516502557
H           2.45509572466956   -0.15845963816053   -0.31599382582372
O          -2.73221728940005    0.08977155731795   -0.03813156572489
H          -1.96354162115980   -0.43375765520175   -0.34024620576142
H          -3.36249358363204    0.09319261535458   -0.76001330299656
O           0.27312286903644    1.46532267292465   -1.13479767610685
H          -0.03867513405654    0.49199015636186   -1.22877759005363
H          -0.27016966337381    1.76951116702529   -0.22965245482951
H           1.25627546222492    1.36023853655361   -0.84588429591461
