    19
        -40.91833006
S           0.87903674829099    0.75496035014203   -1.27957826225932
O           1.97719674751775    1.42847214881311   -0.63214248552610
O           0.80425272391516   -0.66809413270127   -1.01184278238944
O          -0.40653708858074    1.41736601589442   -1.00866960471206
O           1.10878334650381    0.89476152437173   -2.84017007799692
H           1.36627827382485    1.80595232498543   -2.94181521031136
O          -0.68458853502763    0.07386056608726    2.42370055287161
H          -0.72575965706116    0.86929449261496    2.95774994553620
H           0.26366077562869   -0.00683137610089    2.12240393480275
O           1.76154682251810   -0.08072291573285    1.51071592451045
H           1.82507596950258   -0.89944631987788    1.00977273958866
H           1.94316482940707    0.61302928478663    0.84134896185345
O          -1.39336286423163   -2.03184221801914   -0.83932064849099
H          -0.52697640013784   -1.60223283086924   -1.05664007507319
H          -1.18955476953354   -2.79656448042988   -0.29696798236715
O          -2.05819365430585    0.14658956078331    0.28887740413803
H          -1.58022772698896    0.10619861839742    1.20098992585214
H          -1.40278820464057    0.75531462533989   -0.31157269558539
H          -1.96100731668313   -0.78006523839856   -0.13683956436323
