    19
        -40.91667382
S           0.13684227503748   -0.98194537365176   -0.72892884402241
O          -0.40326250510302    0.36300201183950   -0.81162874279156
O          -0.64332364486060   -1.90011485481692    0.03232106976829
O           0.31041271156538   -1.54096041196895   -2.15777629340325
O           1.56930068313384   -0.89526813070909   -0.19782551666797
H           1.64724681360666   -0.05789121447225    0.40734864787595
O          -0.21799156317005    0.22781008014164    3.01168028279763
H          -1.05573158221185    0.15349526953658    2.49736793049808
H          -0.02937081208403   -0.65143065912466    3.34384424979022
O           1.45052671756535    1.17154779521177    1.21823990442705
H           0.91047116565617    0.87453229650894    1.99901401295925
H           0.85085045472615    1.68378905681925    0.66693958349126
O          -2.23028998104774   -0.12957273407087    1.29173983125983
H          -1.88544863545906   -0.96888200787053    0.94363364187788
H          -2.06190635021457    0.50453769197593    0.58766107911826
O           0.69360756478464    0.82238932643533   -3.17810310207086
H           0.60743367679946   -0.78704334723603   -2.72684634787692
H           0.09292368390499    1.10327634664003   -3.87267892503529
H           0.25770930736978    1.00872885881679   -2.32600247198328
