    19
        -40.91482293
S          -0.92685800446789    0.14095310552463    0.45399408227940
O          -0.79565883440097   -1.28131409937613    0.41109476456238
O          -1.40383288921503    0.76539268114101   -0.75191903163009
O          -1.81838070540125    0.52216414324152    1.65214983776914
O           0.41960479259026    0.80048761198201    0.82361587132081
H           0.95273363095718    0.86265367815487   -0.05675981824800
O           1.16294115413566   -1.80752315683794   -1.62297777815736
H           0.23805555314834   -1.86885101190201   -1.35687342426816
H           1.65611336664390   -2.14286313249707   -0.85360536802117
O           1.33616992371291    0.81054059811588   -1.51598473921119
H           0.50507878452025    1.04787205002810   -1.94185038864049
H           1.44181129274574   -0.16639757917257   -1.67062779739510
O           1.58764102188008   -2.51602306403210    0.98862951012904
H           0.72029944563126   -2.07901122807270    0.98602201456544
H           1.46257559341238   -3.36905152965914    1.40814377478437
O          -1.81570546655665    2.95681605774092    0.73870254518073
H          -1.79948609996376    2.45551280297770   -0.09400388611541
H          -1.96864780257860    1.49724800416560    1.56591244774506
H          -0.95445473678929    3.37139406847144    0.83633738335180
