    19
        -40.92246913
S           0.28655380992184    0.06363990841194    1.02915003321155
O          -0.72771935846808    1.06352616340060    1.26945535673686
O          -0.19982208824869   -1.27609873281837    0.89379575148790
O           1.10178576003188    0.46732224191103   -0.19644297261945
O           1.33430640837168    0.11178054173860    2.16258540663250
H           1.57033305674463    1.07090252939634    2.22829291749395
O          -0.03012923736490   -2.71699255338025   -1.36967214162387
H          -0.14396427973199   -2.34960019207417   -0.47250899742735
H           0.75830285445370   -3.26154908331142   -1.34263989915616
O          -2.31108777798708    0.14425509448872   -0.71462404248125
H          -1.91743717114468    0.61197446064876    0.04182828814815
H          -2.56903097073858   -0.72009091272213   -0.38455265353618
O           1.37191758876884    2.67808183087694    1.74440573757558
H           1.74767218478737    2.78712935747791    0.86626642091729
H           0.42404812706230    2.50820818185361    1.61946576500774
O          -0.15216699721476   -0.20574695563470   -2.20727872099800
H           0.60160987989874    0.20538358764178   -1.14115739066066
H          -0.08502808572174   -1.18843077653455   -2.14628994604538
H          -1.06014372335785    0.00630530865220   -1.88007891269825
