    19
        -40.91892665
S           0.69744090944728    1.21997367231590    0.29023600374332
O          -0.69226342710780    1.07801623042959    0.64725189567669
O           1.62961058895635    0.91568320533386    1.35446221617278
O           1.00984538764212    0.45363251226454   -0.93082576083456
O           0.91658077201819    2.73674844463127   -0.09895759269727
H           1.86145038815333    2.85600836902577   -0.07122825842609
O           1.08081598298730   -1.55967003870091    1.91893048956621
H           1.89171665634305   -1.98022318465593    2.21324939297347
H           1.28301465063314   -0.59268651390822    1.83348643226623
O          -1.59280938508819    0.97200607026230   -1.89605786514522
H          -1.36782234598413    1.32259395452639   -1.01789292949330
H          -0.74473338089930    0.83306010596315   -2.32761910452254
O          -2.17548371898891   -1.05535152200855   -0.25707746326907
H          -2.23422480437586   -0.47363814631538   -1.04873233511461
H          -2.02118056211437   -0.42826851810020    0.46713709707550
O           0.19258902596252   -1.83763004425129   -0.44538036039124
H           0.59171387640738   -0.91820057292973   -0.76469763186407
H           0.52734488737526   -1.90125947771634    0.51984979499381
H          -0.85360551139199   -1.64079452611549   -0.38613402066010
