    19
        -40.91907705
S          -0.76369658044231   -1.21527891247227   -0.84822891149414
O           0.17455650249035   -2.22247931519294   -1.28484642375642
O          -0.76992038299164   -1.07881558959689    0.62398510543719
O          -0.59496900167078    0.07193013781699   -1.48220296007867
O          -2.21277889014406   -1.73027772903246   -1.22324741910819
H          -2.18011822394144   -2.67631754576857   -1.10720106741235
O           0.64164265957649    2.26769562109775    1.40339241601547
H           0.51593754967054    2.63817270411486    2.27888184614574
H          -0.27081231435099    2.11784543540285    1.01880283310962
O           2.09795953654641   -0.44125881819415   -1.20854905183752
H           1.55746771096100    0.21800714497708   -1.66301123533275
H           1.60244440480056   -1.27930053054331   -1.34670379542318
O          -1.66478408064953    1.50132254286853    0.46124243938543
H          -1.78218817617817    0.66198177011626    0.92510116549010
H          -1.39540854693940    1.21655523293094   -0.43425831809922
O           1.44286467506597   -0.12116699613195    1.20952129124205
H           1.87960024763283   -0.21895993494927    0.27019141704365
H           1.21249387541549    0.88526775949052    1.33420383693570
H           0.50970905508230   -0.59492296693793    1.07292683173749
