    19
        -40.92246929
S           0.77198955601743    0.61008941100860    0.42160227443149
O           1.48822819661007   -0.56676146116824    0.85555350923117
O           0.84879374291699    0.88659711974803   -0.98096672852741
O          -0.68288317969342    0.49979624489489    0.87037207557475
O           1.27617681041088    1.83826111334188    1.21036713715696
H           1.24719034509879    1.54343312973280    2.15498690588063
O           0.95705924570762    0.35941380801071    3.32530754348889
H           1.28965894561870   -0.31189093047361    2.70747215170695
H           0.00899152622989    0.21761653139895    3.39800408048246
O           0.46849844537267   -2.09623557758903   -1.12172018731911
H           0.96028987593451   -1.73115435010664   -0.36623443481056
H           0.85654980080333   -1.69890298179170   -1.90534793005432
O          -1.26144657937784    0.81532502124220   -2.64593063169748
H          -0.40885537383759    0.91443317652862   -2.18119515998320
H          -1.62271296054147    1.69800061805859   -2.74278479340960
O          -1.87743190281324   -0.92687884779650   -0.74510411521872
H          -1.28403423852281   -0.13138174828841    0.20039019434060
H          -1.88226458466508   -0.34198165687129   -1.53956343658753
H          -1.15379767102523   -1.57777861940293   -0.91520845435430
