    19
        -40.92122917
S           0.55570659584035    0.64410723929894   -0.73950199416089
O           0.56756428595306   -0.90934418733686   -0.73871535656307
O          -0.33822291068895    1.07977880978631    0.30875171331291
O           1.88620240508442    1.15253467189094   -0.63848044029630
O          -0.02855418847827    0.96709627883145   -2.10823243401166
H          -0.95755649529285    0.54904788586551   -2.19597379302785
O          -2.22768489690643   -0.78209293326557    0.36584053039160
H          -1.73455115246726   -1.59121731157687    0.51888160974827
H          -1.60180364033241   -0.04661540250895    0.52522250762304
O          -2.36299057560344   -0.04023718509386   -2.15558077275148
H          -3.01431341112388    0.66394167170281   -2.20085658157779
H          -2.43149651643717   -0.42766710027650   -1.24444836075775
O           1.85266895744250    1.09236346039262    2.05031567946507
H           2.13460097724169    1.30445773561136    1.14340125201862
H           0.95028223430740    1.42416918915703    2.10483996092077
O           1.59485644599388   -1.46960897950002    1.52957729219314
H           1.70957068623239   -0.54775481607816    1.88579599644357
H           0.96806717567628   -1.22351441999014    0.13577548981403
H           2.47765401347420   -1.83944460679966    1.45338767107283
