    19
        -40.92453850
S          -1.35638425613665    0.22425795008721    0.65802195455346
O          -1.45412815648149    0.72902805694328   -0.70662476449425
O          -1.09589451471499   -1.21120003921647    0.66184703741072
O          -0.40124892070454    0.96372830347694    1.45616831051230
O          -2.76698237999660    0.43961006283782    1.33517779055068
H          -3.37877997034607   -0.04701695340960    0.79057894231715
O          -0.06002597789782   -1.42169244200861   -1.70431162525348
H          -0.49611876097422   -1.52618220694968   -0.82040758613110
H          -0.58821163417386   -0.74144427929869   -2.13831198916818
O           0.81969299780091    1.98900533225016   -0.76891238312401
H           0.83861301289556    2.28659470159638    0.14807755950002
H          -0.10009460421534    1.64095687197300   -0.88096780999253
O           1.99065975891408   -0.24193376271678   -0.83834781984544
H           1.24067544629845   -0.79951707931145   -1.30707790427688
H           1.63373424658056    0.74191444199021   -0.86745166575838
O           1.48220357660377   -0.82130375742125    1.56150800065733
H           1.92974187183384   -0.52115441779489    0.16852660118630
H           0.84541897654702   -0.08100812255170    1.71619898501144
H           0.91712927816842   -1.60264265046726    1.53630836633571
