    19
        -40.92246922
S          -0.13058726511365   -0.97586287193994    0.41878901988018
O           1.13826724743666   -1.39833715459299   -0.12706176312814
O          -0.97754593613595   -2.21831235421043    0.77091034996033
O          -0.04605908077241   -0.12246701136531    1.56523686656383
O          -0.95103993339190   -0.31464127933792   -0.68554925045060
H          -0.65996370305524    0.73229050125593   -0.85742702444798
O          -0.18186658006494    2.01412081163464   -0.92105255846231
H          -0.50468765766531    2.40182753292781   -0.07303692373483
H           0.78257656286821    1.85595865125815   -0.77561569861949
O           2.15761598043343    1.10098646665853   -0.08131931200026
H           2.20853335918346    1.28201980335436    0.86057126283304
H           2.00162338106559    0.14433499726618   -0.16098370891252
O          -0.87558389988953    2.43487622847799    1.60223756475333
H          -0.55718871356336    1.52711485715953    1.76751827397474
H          -1.77236766748675    2.47435062997186    1.93855956631531
O          -0.36763239601255   -3.06135058499536   -1.61207454245921
H          -0.80555169706724   -2.45548538155530   -2.21650373574670
H           0.47506084253095   -2.64539330036652   -1.36732592922261
H          -0.93360284331217   -2.77603052157960   -0.04587245711169
