    19
        -40.91410384
S          -0.19568373583836   -1.50845315099424    0.21984736163860
O           0.34126893148102   -2.33077580688377    1.25788236915176
O          -1.00566233401511   -2.09695811167133   -0.79129136540191
O          -0.95839804451224   -0.32789890743852    0.86666622934745
O           0.99806092434965   -0.78253692562507   -0.50140107555141
H           1.65399408924377   -0.56904641278593    0.21235879045109
O           0.13799962862149    2.25575234538708    0.58642141629342
H          -0.13684592914772    1.40372110695218    0.95278372463843
H          -0.41001909082842    2.92592957005255    0.99873988053518
O          -0.16420968300872    1.37980751249143   -1.98828593140766
H           0.43615296997307    0.62776671602808   -1.94335738079165
H           0.03346482357875    1.90849231164827   -1.19270843765109
O           2.36067746469224   -0.69929237894974    1.70084224220933
H           3.21784815267474   -1.12975972932722    1.74733516788698
H           1.68948084938359   -1.37980276502681    1.90054634159823
O          -2.36288132456710    0.24280640362884   -1.10569459832753
H          -1.67057699517604    0.76052213399175   -1.59914583231527
H          -2.32022235900476   -0.66027792485590   -1.44954202512040
H          -1.64444834799185   -0.01999597659012    0.12800311293319
