    19
        -40.91790599
S           0.98048223830917   -0.09987927816233    0.28834940144640
O           0.76400778531764   -0.10841870240354    1.70653021557608
O           0.10086151988302   -0.96071841685436   -0.46028711638506
O           0.92164405239069    1.31915871973567   -0.24595213116073
O           2.45651102028986   -0.50574265711810   -0.01562407903758
H           2.54047764869593   -1.41321654422808    0.34475048198351
O          -1.51565944613611    1.37232581436067    1.45114707574361
H          -1.17775564117719    2.26784445904751    1.38246033054560
H          -0.77150094440458    0.82492160852617    1.74602913648086
O           1.61674877916894   -2.70418449429881    1.15021159636885
H           1.30854770373492   -2.20449124698964    1.91497326734383
H           0.86628667968157   -2.75974201835375    0.54835641720732
O          -2.33355976748528    0.21579597421430   -0.88039716649681
H          -2.32898658305406    0.69317543201464   -0.03015486995058
H          -1.70838742130151   -0.51296006720131   -0.74914523414243
O          -0.51626046901334    1.40475321623144   -2.28195647759308
H          -0.21730392400421    0.71852246580169   -2.88410244772785
H          -1.34992149101417    1.04541220914159   -1.84399832366568
H           0.36376827014817    1.40744352631663   -1.14119008647492
