    19
        -40.92246900
S           0.10742044560997    0.49142323316217   -0.94406110609756
O          -0.53232968268549   -0.61700663541794   -1.61372737640467
O           0.89504501576314    1.32895491510041   -1.97515250455729
O          -0.77330356029973    1.35076888521362   -0.21227434255748
O           1.21155346275582   -0.04615189027960   -0.03749532508777
H           0.82437580635879   -0.42021242088114    0.92194321039740
O          -1.96381300273056   -1.30251654586382    0.57010121743372
H          -1.57220822064384   -1.21691870873047   -0.31609910988019
H          -2.55443774177566   -0.55179534361948    0.67094351480776
O           0.17293880874028   -0.81967867811973    2.05852312814227
H          -0.65116774803687   -1.20254457003596    1.67071676826569
H          -0.10890045651725    0.04002162911103    2.45260974051881
O          -0.70951434578984    1.64701104183974    2.45905552373505
H          -0.16706532123139    2.40529516740345    2.68175192549569
H          -0.84755621319522    1.67951670206631    1.49324534074459
O           1.87189247283935   -0.94372275111015   -2.77616919220103
H           0.96012847551069   -1.21837501410865   -2.58570092891338
H           1.42615210452096    0.65724653313604   -2.47204811445240
H           2.41078973080675   -1.26131552886068   -2.04616236938525
