    19
        -40.92136403
S          -0.07010600417684   -1.05019715127287   -0.90289697752595
O           0.97839789983916   -0.99603708873412    0.13115898967936
O          -0.97512553314991   -2.15545679164326   -0.70707485807734
O          -0.71979076884183    0.23344612330279   -1.04396628837221
O           0.70585598725454   -1.31818852171791   -2.26210074596036
H           0.72684394425276   -2.26818877958955   -2.33522324257337
O          -2.26421986865574   -0.78346877806537    1.13609920872038
H          -2.72823637961187   -0.14557211273146    0.58670454684270
H          -1.89045500720003   -1.44234909075283    0.50769448522623
O           0.01472653115827    2.20128257021284    0.52303118008026
H          -0.42716389487780    1.68197840047531   -0.18713086733728
H           0.95662055147928    2.18508486435777    0.24301658693016
O           2.24047762190091    1.25843472002175   -0.59846646906309
H           1.94352068641905    0.36522998910653   -0.34122901170977
H           2.24580490386487    1.27019576809376   -1.55713611660915
O          -0.10317447116520    0.23754793340021    2.02942143871834
H           0.46903085934041   -0.34328228520108    1.40505567122572
H          -0.06035662545654    1.20233386978817    1.51430969255840
H          -1.04265041237402   -0.13279363904097    1.85873277724737
