    19
        -40.91209444
S          -1.35671960981216   -0.51348168020390    1.29301986719919
O          -2.57581453192460   -0.15040633567726    0.64659287802667
O          -0.54975855265942   -1.52880438534569    0.68484911083445
O          -0.51711160452416    0.72801948409533    1.56279985701153
O          -1.72591667298203   -1.03424271017650    2.74074568135128
H          -2.49485515415120   -0.55222834061751    3.03975346026301
O          -1.41823838948799   -0.71081816138297   -1.77578083955262
H          -2.13861614306278   -0.34753751394327   -1.24406380995106
H          -0.97153147471425   -1.32300259292008   -1.17618443382887
O           2.56823610746359    0.87861822000664   -0.77695695999542
H           2.85861341598023    1.77885650788268   -0.62019976733200
H           1.77888059950075    0.94720715454848   -1.36420663163863
O           0.43793113868951    1.13059341770362   -2.35895442807915
H           0.60866766446114    1.02974300812100   -3.29716744742030
H          -0.27921065262257    0.49079275421712   -2.14821686860033
O           1.74745312217339   -0.26167796568637    1.43472863166499
H           2.14908459912472    0.14254810295820    0.61494342748364
H           0.49475685617749    0.41096608073984    1.58298584685752
H           1.38414931237355   -1.11514505431271    1.16131241571005
