    19
        -40.91821040
S           1.11961912214288    1.64014759308495    0.02825803267422
O           1.70992035829118    0.65103747731165   -0.88985229837012
O          -0.26237086951793    1.91211292414346   -0.33793037048183
O           1.28531274419417    1.28199130165391    1.41312718406800
O           1.92755501896752    2.97155208099715   -0.22258229630354
H           1.80421720804830    3.11389696309892   -1.15612913469823
O          -1.94500828458718    0.09706447065221    0.32777623124593
H          -1.30983285564531    0.82340530786860    0.05996994802340
H          -2.78797435811829    0.53377096248872    0.46082522379324
O           1.04606647577180   -1.66636403018317   -0.39236251921072
H           0.70563867426497   -1.51973122313888    0.59652962216773
H           1.41547657007811   -0.69405657612960   -0.65843501564363
O           0.08527996958966   -0.99271657094061    1.82151411336360
H          -0.80384778858701   -0.71083199060056    1.54494831334413
H           0.59767717856162   -0.15183968174355    1.89754683331116
O          -1.30747536835992   -1.81246778485073   -1.43768699896348
H          -1.66589394267192   -1.08127161158599   -0.88717615477092
H           0.20300849950011   -1.79798150435050   -0.93850312687590
H          -1.81736837192428   -2.59771810777459   -1.22983756667102
