    19
        -40.92343660
S          -0.62648659623895   -0.14621625066815    1.55888844121594
O          -0.49844345778909    1.11477528885773    0.84559885236950
O          -1.49102484700925   -1.08511135258444    0.87633426462234
O           0.68028643588058   -0.73013693359621    1.86488922865996
O          -1.29257157844678    0.19633861907437    2.94492022310854
H          -1.33649381116845   -0.65349992281467    3.37207043803018
O           1.63864314786085    1.56168100574457   -0.68823246626772
H           0.96374435676747    1.61949108806861    0.01988718568082
H           1.15752122580902    1.72490563012073   -1.50692796063523
O          -1.03989104745476    1.01471052646278   -1.75160699293971
H          -1.95563143550331    1.18408820374490   -1.97703771498292
H          -0.97481210409509    1.11074225518897   -0.77577036530162
O          -0.27068818108089   -1.53364284039475   -1.39361062339401
H          -0.81928186227766   -1.57876448305399   -0.57442570753145
H          -0.54576232861149   -0.69039221398626   -1.81077248306221
O           1.88640570939186   -0.94100835043699   -0.29609699291121
H           1.96938585273726    0.05711824228585   -0.52622103447938
H           1.50582941573178   -0.93029992295165    0.67780985958661
H           1.04927109553502   -1.29477856911807   -0.85969616178603
