    19
        -40.91373169
S           0.30324796345299    0.99423664223384    0.92661133776360
O           1.41122011566448    0.92599889953860   -0.11856196793261
O          -0.60138320233673    2.04058689266557    0.56859611993516
O          -0.24296017241511   -0.29162707969316    1.22208515931210
O           1.06966553739646    1.46387792584149    2.22720900594350
H           1.21070389387293    2.40571325702962    2.15557425779481
O          -2.80411779914450    0.33061450497659    0.37900751847089
H          -2.12071034319949   -0.11427343113770    0.89814941580090
H          -2.63599325210737    1.27067025845769    0.50103774590942
O          -0.97250729369956    0.15526631680717   -1.61584883846754
H          -1.81235689067457    0.15243156288160   -1.11376053334774
H          -0.57225766138292    1.00950295093132   -1.44457257526184
O          -0.02396900864678   -2.24536588456962   -0.75006136074704
H          -0.31334464338242   -2.06399231549093    0.15233870354322
H          -0.39698842555481   -1.50862784318671   -1.27276713981522
O           2.37272543668174   -1.33703550998553   -0.50765439912703
H           1.85331590490353   -0.02413838212346   -0.22570936456480
H           1.49841168613023   -1.83372168234513   -0.60265007568444
H           2.77729816434733   -1.33011705278378   -1.37902301947321
