    19
        -40.91517841
S           1.02543402336728    1.61250127238382    0.17236383233512
O           1.51567706603786    2.71309013297882    0.93129461912506
O           1.51533895321977    0.29471577104782    0.57659615175997
O          -0.43434330416239    1.56576947246801    0.01249554499651
O           1.57621054054916    1.82785029497395   -1.32342235106711
H           2.01133209520707    2.67031972364527   -1.23999350363450
O           0.23929945741011   -1.24041142842711    2.24981894166334
H           0.46828063493380   -2.13991929800631    2.00421732095065
H           0.85577061853305   -0.65141649805091    1.74999579712191
O          -1.81370343621484   -1.61674204842554   -1.04227570014636
H          -0.89144389360763   -1.38728197423591   -1.33429742789920
H          -2.40461294685821   -1.30671909275004   -1.73079613966078
O           0.59484507840341   -0.76294342780916   -1.64052240617352
H           1.02062253528032   -0.47037698763923   -0.80713237752443
H           0.68740569123120   -0.00833663554155   -2.22708062699104
O          -1.76462960040190   -0.21532745916792    1.07144727630772
H          -1.06279073315095   -0.67757022524101    1.66244089156547
H          -1.23801077176698    0.62281900178369    0.66005068816111
H          -1.90068199800876   -0.83002061402572    0.25479946907554
