    19
        -40.92139823
S          -1.10847392002740   -0.40104227429038    0.28198496535085
O          -0.82011095458726   -0.48387253186254   -1.14877683464464
O          -0.01774586969105   -0.99037341105852    1.05300150627275
O          -1.37930208484478    0.97473659958474    0.69138065622492
O          -2.40657490376926   -1.21044650300586    0.56363200726758
H          -2.16385198303489   -2.11445553873610    0.27623779209323
O           0.83148504057160    1.35866562768804   -1.88873254165459
H           0.43413435598619    1.80840726068699   -2.63748841514406
H           0.22703405127216    0.59311579447520   -1.67812381127573
O          -0.87998944343312   -3.12521030047893   -0.40816575882796
H          -0.75899170361131   -2.53337793629519   -1.16202277583909
H          -0.25714985522983   -2.80695169610758    0.25960668961767
O           0.63350481428296    2.37484867263608    0.41904022764471
H           0.80471663278428    2.10925470103629   -0.56340362467406
H          -0.29987512723972    1.89969698222063    0.60615307787066
O           1.95313250857784    0.59816934937562    1.63300690354738
H           1.28006419060725    1.79122128577634    0.97826375111959
H           1.21756966006194   -0.06403634709735    1.54524193388833
H           2.71042458133583    0.22165024546296    1.17916425115586
