    19
        -40.92315432
S           1.31436317854597   -0.30280882626839   -1.03106419932664
O           1.84254318915796   -1.01081818110841    0.13798598951817
O          -0.05685625359906   -0.73685346971061   -1.30496859357549
O           1.41806118508663    1.12855967885717   -0.93726344742032
O           2.20110299356373   -0.77778440113218   -2.24271319291220
H           2.35797941922926   -1.69438063526825   -2.03818634603992
O           0.00937403963177    1.83648664610595    1.15978287763987
H           0.68641908296086    1.79193133115618    0.44673006873607
H          -0.83756318934852    1.75930577424086    0.67011921690232
O          -1.84091504300827    1.11583711585535   -0.63917657531555
H          -2.01251932169334    1.76057876786516   -1.32700750288211
H          -1.19322109297500    0.48054017773693   -1.01760436281243
O          -1.59795628855033   -1.47514438449952    0.72582481933715
H          -2.30513977368275   -0.83237936832428    0.60621016360195
H          -1.07033646587115   -1.42950167883307   -0.10173423508855
O           0.33356109289290   -0.47285792390078    2.03964992975859
H           0.19184935244016    0.56309653436822    1.81553616666810
H          -0.50794465333893   -0.94694021233044    1.68552418934953
H           1.06719853855833   -0.75686694480995    1.35235504386158
