    19
        -40.91904991
S           0.38259298797239   -0.39470539215902    1.02873879248335
O          -1.00161229406469   -0.22576795285310    1.39328619610140
O           0.69521868666562   -1.52487023861087    0.21694142480744
O           0.83934460201358    0.90092076362748    0.33090523742633
O           1.24167179750800   -0.43328696748709    2.31693288050542
H           0.93799698639023    0.34421098321483    2.84799034731289
O          -1.90538437978786   -1.32929031317350   -0.92874414562444
H          -1.36410211988415   -2.12078008792418   -0.86046030970151
H          -1.80783177077058   -0.88564433892303   -0.07111939232717
O          -0.07209348253432    1.69667461733380    3.04130509661292
H          -0.78757470789972    1.20414539230379    2.60835540945639
H           0.19597165475124    2.38422116773960    2.42547469563874
O          -0.68806072688027    0.07503884930839   -2.86908273491002
H          -1.20437686275037   -0.46055636420446   -2.22548528422203
H          -1.16211898597612    0.90070578844257   -2.97756824908251
O           1.73224842733485    0.02656704965205   -1.82271062578635
H           1.77307934333831   -0.88481665417791   -1.50556112521806
H           0.90445065628858    0.07857154829721   -2.36627423637833
H           1.29058017827420    0.64866214962427   -0.58292397709813
