    19
        -40.91224333
S          -0.56529777011468   -0.03889520925786    0.35863483277929
O          -0.49234687232743    0.64078998490213    1.61402186777771
O           0.44978497856007    0.31904151228699   -0.60192518763323
O          -0.49939890085789   -1.55638838285661    0.61734208746579
O          -1.95058230303188    0.14687065877061   -0.28897071392376
H          -1.88829001902605    0.99940932424308   -0.83871378164020
O           2.17509333210774   -2.81811986645469    0.88109336550638
H           2.27609825785928   -3.67325943790896    1.30443575228280
H           1.45641318758974   -2.36262416379805    1.33230886426852
O          -1.29062272662056    2.28773536397260   -1.48176088467060
H          -0.41357816314209    1.91755553258248   -1.64354062451313
H          -1.19280148249998    2.85979523323589   -0.69087406010195
O          -0.71867558613167    3.24384659237320    0.95627692416694
H           0.07904064825788    3.69648949341980    1.23693758725688
H          -0.68544779149506    2.35547597947738    1.35681118151005
O           0.82672987444093   -2.22236148122937   -1.43010047547496
H           1.57485383005605   -2.55464902643589   -0.90349682012598
H          -0.11816029188994   -1.97055011403862   -0.23650392470528
H           0.97718782824447   -1.27016197327795   -1.54197600022584
