    19
        -40.91320589
S           0.11467386700841   -0.66290892990659   -0.24961084301792
O           0.22276156796982    0.13057002655182   -1.43606105196735
O          -0.89501059840436    0.04226206487216    0.70507571036475
O          -0.21582797122787   -2.04473414785202   -0.40043152552726
O           1.42955883445781   -0.58370370526489    0.55244613829116
H           1.58214071575693    0.39097760947242    0.82939830404918
O           1.17782246773449    2.63417567402723   -1.35039461907150
H           1.88818931025957    2.70857338190269   -1.99056770360836
H           0.73348849853187    1.78296633420461   -1.52729693941944
O          -2.37360585899924   -0.93042576290743   -1.83985417133975
H          -1.67351423471059   -0.31691008440255   -2.07654751601849
H          -1.93150457182657   -1.73959295315129   -1.57107975414530
O           1.50178514192435    1.87971432271022    1.15294700916235
H           1.48280983052280    2.31019084491355    0.26176218065936
H           0.63386088219669    2.03579321912316    1.53561554167954
O          -1.14635680822225   -2.13658362537589    2.10124822294339
H          -1.19280991147650   -0.63727675888476    1.36193267439098
H          -0.91469610481389   -2.52485632769639    1.24055477386686
H          -0.42376506667467   -2.33823118234893    2.70086357872312
