    19
        -40.91908975
S           0.20388682943121    0.27802811305299   -1.15587269070096
O          -1.24512259914491    0.26476359562261   -1.09483577809352
O           0.74457636244122    0.85293301413080    0.11215231695872
O           0.77655027702175   -1.02103590179685   -1.40995167560862
O           0.65796469372796    1.23681982254494   -2.29011656562549
H           0.40898875582945    2.12461715335961   -1.95892845991746
O           0.25242818467936    3.31376268081890   -0.71246764151170
H           0.40386187858996    2.53963738642216   -0.13751961592430
H           1.01512268088775    3.88764922186162   -0.60894645763940
O           1.21297596911983   -2.66826910667997    0.54063139449814
H           0.63463067899017   -3.41464949398869    0.36721444238000
H           1.18546515434525   -2.10693396960302   -0.27814539053760
O          -2.13057406952486   -0.97539029334330    0.96705988943527
H          -2.84510042695633   -0.44104772850202    1.32015933228311
H          -1.87840136172294   -0.55175085452092    0.09572893598665
O           0.21152722633269   -0.78248203064284    1.88482450699914
H           0.51043914174845   -0.01606632753478    1.20658921696283
H          -0.79327908992487   -0.89750502427473    1.66223684042427
H           0.67405970363940   -1.62308025967635    1.49018736685790
