    19
        -40.91749340
S          -1.24694419660334   -0.23919029293274   -0.29476929197895
O          -2.63899435257588   -0.55876777221569   -0.25175559812465
O          -0.39335492134418   -1.06991046431818   -1.09509839048598
O          -1.06579259457838    1.22415369040759   -0.69311136963242
O          -0.68707748675773   -0.30861731337496    1.16856969439828
H          -1.40882057933699    0.04883831845831    1.74632792949084
O           2.96085885213355    0.74546905386704   -0.38652423068011
H           3.84389162186800    0.56896937608371   -0.71514261725595
H           2.62440102256463   -0.10364671085991   -0.01618736430709
O           1.79557306148256   -1.51541801938603    0.42794140043794
H           1.04377508359553   -1.52018665332166   -0.19173889374112
H           1.40289886335619   -1.36956510547911    1.29226026374588
O          -2.96258844927564    0.41937669716345    2.18338301168881
H          -3.21605279186623    0.17891001745846    1.27241411479369
H          -3.42376271329857   -0.18697740152881    2.76844972571629
O           0.99281879384008    1.09801228829042   -2.11668758043060
H           0.83116529453374    0.16819751951340   -2.31924984298493
H          -0.21707432881586    1.31013080372273   -1.28438096961277
H           1.76507982105933    1.11022195847722   -1.49470001103672
