    19
        -40.91832166
S           0.95190363262934    0.86251771111801    0.53682098246267
O           0.49280095275726    1.34246391633026   -0.85019056950267
O           2.12832507148549    1.57868587779347    0.90524375357926
O          -0.15948564189149    0.86009403020765    1.44155355635324
O           1.32920186733951   -0.63813198553679    0.28437821294355
H           2.11975212202415   -0.58544303134397   -0.30766730184322
O           3.27226084595258    0.30518675079251   -1.16001217961558
H           2.88578506782629    0.73214219595124   -1.92953400944898
H           3.26603338713168    0.96755045802248   -0.44885481545332
O          -0.99798287017498   -1.71228980572834    1.55065841000284
H          -0.75689133603828   -0.77862213671827    1.68682183397839
H          -0.17039066943602   -2.15616097084025    1.34925620589441
O          -2.42139088666804   -1.41670773530118   -0.68584473403328
H          -1.92069278123712   -1.63504334021919    0.13536443255115
H          -3.31138225002131   -1.74945313361089   -0.55828069139993
O          -1.99429177547691    1.18587009965355   -0.62255281172408
H          -2.21037649743848    0.22913046833242   -0.77676912476117
H          -1.95611071298683    1.29645057065047    0.33542046309060
H          -0.54706753570240    1.31176008058295   -0.88581161302829
