    19
        -40.92315430
S          -1.23546675076470   -0.84665072865889   -0.80017819928750
O          -1.79779779723771   -0.94900380193437    0.54909026447593
O          -0.87514712027789    0.54238916562581   -1.09064982094881
O          -0.14220932652593   -1.74913801581995   -1.04225946582231
O          -2.41184801770165   -1.23324422814370   -1.77298773491509
H          -3.17087889111689   -0.85314135869791   -1.34168611246298
O           1.75469363033709    0.91875625425670   -1.05795765971298
H           0.79530983821397    0.76875299231728   -1.21091383110124
H           2.18773184106148    0.73748112314264   -1.89330739654280
O          -0.08210209430091    2.10547498867028    0.90292919424883
H          -0.55025297998203    1.69628771855835    0.14230209319470
H           0.79265834417561    2.32764487770317    0.56668189622182
O           1.73194446981119   -1.11891481916454    0.68256690327052
H           2.02551211495961   -0.35015922534501    0.14811660367371
H           1.13788800585899   -1.60691728420829    0.06799928158198
O          -0.05074949297950   -0.12819962503934    2.11589907557098
H          -0.85894805204825   -0.52874323171294    1.58836073688716
H           0.78922718758482   -0.58572692121588    1.63882094464045
H          -0.03956490906956    0.85305214966995    1.80717321702509
