    19
        -40.92221101
S           0.05800340202510   -0.74283865431960   -0.74784124383998
O           0.05254919097221   -2.14510021737503   -0.47181591004004
O           1.14356183632951   -0.10254904296538    0.15623469029939
O           0.24679765838751   -0.34025797983122   -2.10528599756205
O          -1.24889588322238   -0.08563861979650   -0.24492607319573
H          -1.42588528428268   -0.40228004870287    0.70524123339472
O           0.19774741269769    2.25349851248664   -2.65914450797714
H           0.11534718230966    1.27895061998247   -2.59968033672992
H           0.91742937409749    2.42438130879645   -3.26978396076188
O          -1.53987806616503   -0.94938443990136    2.13100894094535
H          -0.67398868677519   -1.41642124834692    2.27827225905315
H          -2.21775849101151   -1.62815317592874    2.16891343534552
O           0.76118095666368   -2.20994555388295    2.08774654549539
H           1.50320581001027   -1.59996969429441    2.09186360349199
H           0.59884398969154   -2.41486367031471    1.14560744793221
O           0.49609054950966    2.34377376043545   -0.04470187124510
H           0.42129046529714    2.47117134937584   -1.02447281510934
H          -0.40483230683373    2.36139890055572    0.28964277654999
H           0.99919089028320    0.90422789403384    0.11312177395082
