    19
        -40.91289209
S           1.21919817441046    0.32436165694564    1.88737191657905
O           2.13423754565549    0.67026589606001    2.91261001663762
O          -0.08092027798842   -0.19604528002669    2.47384618917108
O           0.95018864947785    1.27794488798428    0.85075952695320
O           1.81796827140708   -0.96429926701220    1.14191433847318
H           2.36435171449807   -1.38458606997555    1.80117834040724
O          -0.18134863361823    0.08777005143630   -2.84072980065228
H          -0.47444135060375    0.77161404547323   -2.21202910294229
H          -0.89980973037883   -0.04469685773215   -3.46146907325913
O          -1.03658806801184    1.73320069625650   -0.80207586312138
H          -1.25026719744861    2.66760221984909   -0.79333589516271
H          -0.23838497710970    1.62962531791640   -0.23626003339317
O           0.03976873824694   -1.83450430149059   -0.94789555316021
H           0.84981088633486   -1.67240686153764   -0.45322629433215
H           0.06855576983214   -1.23901319634856   -1.72577981364468
O          -1.65481060632893   -0.56615110314733    0.59014531681639
H          -1.70063923236584    0.27626260425307    0.10562259799980
H          -1.12664688694708   -1.17800913711764    0.00495604630306
H          -0.80022278000557   -0.35893530250251    1.70439716266131
