    19
        -40.91965995
S          -1.48486373284545    0.74915061745596    0.40719104939862
O          -0.83332968168278    0.78553857919917    1.72570363820667
O          -0.91404120111522    1.75337225074457   -0.47702318880433
O          -1.47521943483105   -0.57758562705963   -0.15733141703590
O          -2.98677821180777    1.14915820772172    0.65668931746229
H          -2.91666022033513    2.02092821402301    1.03334200124356
O           1.55467295689557    1.14557023602089   -0.78184172775538
H           2.08132104008677    1.94505288493067   -0.83865936361247
H           0.59885631501919    1.44088081474532   -0.73623564889404
O           0.48729109878791   -2.38890858226709    0.36378015926608
H          -0.45352517401404   -2.15644766571243    0.43028591289526
H           0.68455564471766   -2.22200573345444   -0.59021856322703
O           0.48618931127857   -1.20037658617517   -1.99375960722473
H           1.04169887807377   -0.41385054692778   -1.94505383077914
H          -0.38323542628384   -0.92883638044099   -1.65654099227858
O           1.36364646385691   -0.27716821037559    1.36173221576722
H           1.07673989054058   -1.25066891306108    1.00635836688262
H           1.62817657930278    0.25182104864920    0.54253209483112
H           0.44450491449997    0.17437539178997    1.64904960365713
