    19
        -40.92136500
S           0.70192935981310    0.72598615240330    0.33250923353749
O           1.78625860798409    0.55916376123426    1.24627806394417
O          -0.61101181595113    0.55281953020041    0.90539375571195
O           0.81982166911043    2.07367008122193   -0.37089605438248
O           0.82519408455517   -0.27462280742746   -0.85256303145227
H           0.48288227546923   -1.15928710833802   -0.48004934500550
O           1.79046032311937   -1.91821421179820    2.26225901159410
H           2.68340660615393   -2.26152319844564    2.19137356360782
H           1.84621797655788   -0.96392331027880    2.05922135970429
O          -0.10480824327465   -2.24237849408444    0.43812932535274
H           0.57553798472690   -2.32292093451739    1.14851158728671
H          -0.84387011578147   -1.77477104089499    0.84100764993815
O          -2.58984222011382    0.82947148489727   -0.82118654474509
H          -3.24506037016543    1.43585739483282   -0.47090840149743
H          -1.94026983227462    0.67733618582734   -0.10106030703237
O          -0.66027350567970    1.70294291799816   -2.39426466706622
H          -1.49422113317371    1.40822365284490   -1.95032932468755
H           0.23907552500897    2.04001377382854   -1.21475833631783
H          -0.26142716607670    0.91215616050201   -2.76866755850098
