    19
        -40.90698924
S          -0.23953059416187    1.01441942728073   -2.08470086085117
O           0.42410806469215    2.26975149907477   -1.53957532415790
O          -0.62563343620692    1.18721464930239   -3.43676365339823
O           0.51627778467459   -0.14905155357181   -1.71923351698353
O          -1.57681928457079    0.90928434059332   -1.21283812548910
H          -2.15877223084018    1.60213203630854   -1.51656439983599
O          -0.86997760374815   -1.61276863059451    0.01975340610818
H          -0.31922437642238   -1.16469029809584   -0.65294354631201
H          -1.73721064437783   -1.71616553463437   -0.37426643136416
O           0.85151227105319   -2.08982394549209    2.19840164643253
H           0.30580727168618   -2.15520868192702    1.40097874130127
H           0.98380822458618   -2.98226887894471    2.51937858081667
O          -0.31969959166358    0.39968703544188    1.90178192199770
H           0.14637014461181   -0.25818579014946    2.43762944085484
H          -0.78967316215358   -0.12651615881666    1.23483452466719
O           1.62569309538516    1.32403545650270    0.41963123453518
H           1.91564720369850    0.49325632406867    0.02697816844956
H           0.96629996272386    1.97398119523269   -0.68858946975027
H           0.90101688106601    1.08091750840519    1.06610767293488
