    19
        -40.91912305
S          -0.87682183909533   -0.54029029449773    0.85098814364206
O          -1.95450176821315   -0.65261744906895    1.78115399037371
O           0.43863671451083   -0.48779400599345    1.61847028431065
O          -0.80665681114770   -1.50403999313888   -0.20534068117945
O          -0.96442588211188    0.86792085784038    0.15300102428707
H          -1.28207953937504    1.48209534391644    0.86681876626385
O          -1.98993104167717    1.93169621722302    2.26807947937073
H          -2.87135129602755    2.31056615365814    2.22072309943667
H          -2.10009846824235    0.98018555555902    2.45898501467745
O           1.00461048241925   -1.62285732917437   -2.13740171826313
H           0.86308558697816   -2.37679353251372   -2.71150484456751
H           0.27921885896111   -1.63838812387763   -1.47958067408996
O           1.09331363554103    1.17943722594568   -1.78888829421706
H           0.26412460763027    1.27476224035653   -1.30483008699842
H           1.01208643553590    0.36800737834503   -2.31013548257609
O           2.32734249401603   -0.37845093278856   -0.03345491532130
H           1.26158791120819   -0.45784967068086    0.97872190532351
H           2.21746494499555   -1.13287520703571   -0.63180675091421
H           2.08439497425429    0.39728557599628   -0.59399826951283
