    19
        -40.92179441
S          -0.94599597128273   -0.03376661603350    0.17171734724704
O          -0.03360867892080    1.21335090543819    0.33629242704062
O          -0.13265950069872   -1.11869782791405   -0.34008927808215
O          -1.61483531856801   -0.31834762466742    1.39586566579634
O          -1.92952883714809    0.42063669381235   -0.90128945959968
H          -1.39005892194463    0.90331571740594   -1.63196481971290
O          -0.36862295365732    1.58195487244247   -2.51631530178691
H           0.27597552173667    0.85348697010945   -2.69987792458317
H           0.07925991599287    2.18517160639224   -1.91579695409485
O           0.77704756079937   -1.79082740005641    2.11846397836772
H          -0.02460956593782   -2.15461476252931    2.50317684371517
H           0.59061188563563   -1.70892043969881    1.16781902855740
O           1.19563903351159   -0.53962900893810   -2.57230459948184
H           0.81751269585856   -0.84290980772231   -1.72150947922130
H           1.06957690905320   -1.25724791750674   -3.19598541040871
O           0.64643691829828    0.79394400373661    2.74015218378475
H          -0.22776956556641    0.79554015676775    3.14250509035822
H           0.88305420338571   -0.15920710796941    2.63199784356614
H           0.33257466946170    1.17676756692007    1.28714281853142
