    19
        -40.92048059
S          -1.32062652166318   -0.90942647928264   -0.08228803951733
O          -0.36949128491925   -1.96973963443815   -0.33619338915448
O          -1.00916888755350   -0.20739542253564    1.17227024141784
O          -1.46630950627074    0.03218699937640   -1.17385843385741
O          -2.72547440139415   -1.60695908510555    0.12805324949273
H          -2.49557455468548   -2.48037962183555    0.43141861154405
O           0.97487739451347   -0.44926498385225   -1.98043573177078
H           0.82081615128154   -1.26457404055671   -1.45870337562727
H           0.05782775994473   -0.12208672904693   -2.08074879459886
O           1.79589782912443    1.18841873904138   -0.27739245185854
H           1.56530925874880    0.51118663030271   -1.06647592544204
H           1.86239379877108    0.59828100422355    0.56145297197907
O           1.52268927463292   -0.29905974418863    1.75836869301455
H           0.55199834478323   -0.42154996380581    1.59822658060696
H           1.60785139744186    0.07286883956439    2.63878193542114
O          -0.48870616387526    2.15302240655866    0.18716785329652
H          -1.01415469283836    2.06999587397427   -0.61830098864526
H          -0.78296504878010    1.37565126346386    0.72203006597218
H           0.91280987308115    1.72882393828624   -0.12337308254153
