    19
        -40.91842150
S          -0.16095849546954   -0.53833984617971    1.00892173688132
O          -0.54043559584023   -1.85723249547940    1.37686639741838
O          -1.19856168500482    0.28171133556080    0.42597461899237
O           0.48789463961286    0.20606023797109    2.17345383794855
O           1.01944858564500   -0.58752671430034   -0.02207458156751
H           0.69521580547269   -1.07049761680830   -0.86301678834776
O          -0.01287622420486   -1.66516027505205   -2.07335551616737
H          -0.91126302804812   -1.88326877785938   -1.70562900178789
H          -0.15289492042360   -1.01218159308117   -2.76371206230593
O          -2.28000881049706   -1.89301814294198   -0.77170691794433
H          -2.21536202657930   -0.99496937716206   -0.40754619225905
H          -2.04978541996674   -2.46645983735627   -0.03125481530091
O           2.03045228216331    1.94362450294872   -0.45928248361428
H           2.94910443340278    2.02483711933147   -0.19563410827816
H           1.79995549906035    1.00248094373902   -0.39095749020892
O           0.07562126516049    2.53208072780955    1.28802849752843
H          -0.70566785364728    2.19135325719604    0.82957764946611
H           0.38347646376026    1.20749156678218    1.96773065053808
H           0.78664505533959    2.57901498488126    0.61361656897033
