    19
        -40.91975000
S           0.56657998265908   -0.56603046111890   -0.26387883827124
O          -0.86580481391977   -0.60088996610965   -0.47736439781057
O           1.00542021755336    0.60862665548716    0.43735527370885
O           1.01591089350374   -1.82414686708501    0.48227886955243
O           1.28622571206634   -0.72432293796308   -1.60580072105536
H           1.06482726018332    0.04364995326589   -2.24093442752371
O          -1.65679357864458   -0.79461541995857    2.09407898930992
H          -1.50819742935749   -0.69924375046001    1.13554794649711
H          -2.24198481772385   -1.54669289341563    2.20546551900518
O          -0.86231831358970    2.06176256764650   -0.99762559292032
H          -0.17328095459084    2.16160541468187   -0.32918302051141
H          -1.23836743265688    1.18515093376197   -0.82119468959813
O           0.52819419701822    1.21926930967827   -3.06529623963746
H          -0.09021907609976    0.91695871318665   -3.73491245578649
H          -0.00307388858462    1.71156189843475   -2.38637783430761
O           0.92809322115787   -0.82783937330554    2.79887860884865
H           1.08523335067713   -1.57001376442478    1.47533806152511
H           1.21240006901160    0.03772445324208    2.47845522212429
H          -0.05284457872082   -0.79251448554695    2.81516974700294
