    19
        -40.91722667
S          -1.01719910378335    0.22336800981063   -0.69522170779929
O          -0.01614917885543    1.41357648174531   -0.52063570896014
O          -1.42279641202545   -0.16924288037853    0.61862573759907
O          -2.02783948845477    0.57902555507790   -1.63569181070097
O          -0.14827599215077   -0.87429692484245   -1.33575087975308
H           0.56585765860486   -1.21035816806405   -0.67119230175842
O           1.55444644443137   -1.69695037459229    0.32984712253728
H           1.74633538924301   -2.62721650739617    0.19108664311602
H           1.09215257369759   -1.63431703408517    1.22089556318071
O           0.15720658568852    1.24318836906855    2.41410637933244
H          -0.55063340286865    0.94686151262941    1.82248444949493
H           0.74207303034590    1.77288526520117    1.86877031899378
O           0.16216523718494   -1.48549140743940    2.50991968202163
H          -0.69613402892672   -1.37657737272534    2.07892765402848
H           0.37159610350820   -0.59139797652157    2.83412576716469
O          -0.06236053550917    1.59950600037291   -3.11273943864544
H           0.16589767106626    1.70778830692698   -1.44590691064074
H           0.36510161504408    0.84891893367675   -3.53310892443158
H          -0.98144416627342    1.33073021152884   -2.93854162480007
