    19
        -40.91820723
S          -0.57453342611422    0.62941574311077    0.57174880727786
O          -1.56401646647518    1.66247339346878    1.16676539105669
O           0.61838672862370    1.32121294771064    0.17671734106477
O          -0.39918782969866   -0.43533931324154    1.52496711640464
O          -1.28806475335229    0.07953624114388   -0.66344733110421
H          -0.76514574484677    0.35467623110921   -1.52011783275485
O           1.84671011875332   -1.31163802235589   -2.25254546662878
H           2.71939320200261   -1.37875811182153   -2.64364936787581
H           1.97870564255015   -1.30058330617664   -1.27878756649817
O           2.11859388576134   -0.93136436864101    0.39433986644685
H           1.90780230643055    0.01413358920813    0.37852491284373
H           1.43365104760220   -1.31289196546196    0.95421445297158
O           0.25486915759214    0.79633851266581   -2.49873267924675
H           0.82088922272652   -0.01219669335561   -2.57078548162119
H           0.72109041878342    1.39337950555849   -1.89905877572538
O          -2.81243914926446   -0.11778727367031    2.59102419142609
H          -2.23407447432905    1.15168373021004    1.69112512186426
H          -2.00262714019837   -0.59465116930492    2.33295379580936
H          -2.78000275651861   -0.00763966031981    3.54474350428889
