    19
        -40.91103809
S          -1.31325464207115    0.07563069640888    0.78315597995772
O          -1.04185360622318    1.04946498253473    1.82122861625513
O          -1.12740506126054    0.68577288421379   -0.55095702530972
O          -0.55515288912259   -1.14236759262953    0.91437218604596
O          -2.83496443596990   -0.30095784397734    0.86341937855467
H          -3.28859010132672    0.52961374116333    0.75385256758992
O           1.47797814332610    1.53259606053345    1.56154208561640
H           1.62648861315573    2.44304965896547    1.82726930084245
H           0.52894423106991    1.32888448570897    1.78750156910807
O           1.45735703779156   -1.62680878069465   -0.62368338569988
H           0.65766999228760   -1.59166711007318   -0.03341219880642
H           2.15314886735834   -2.04624516681446   -0.11372828257854
O          -0.97900616270910   -1.37444020536994   -2.46026823192222
H          -1.19018374471460   -0.65415397524401   -1.85317778680151
H          -0.18318753580688   -1.79278942660109   -2.12287193741993
O           1.30999681293110    0.89266016824936   -0.87409701513809
H           1.52939355852802   -0.11253889147513   -0.89536432444304
H           0.24557576347639    0.88844503424783   -0.86853917682563
H           1.52704515948867    1.21585128084004    0.08375767087368
