    19
        -40.92315433
S          -1.64970817792507    0.06770827636207   -0.39503851420169
O          -1.13454519980280    0.11854564507738    0.97454660751714
O          -1.24378242681067    1.26839629072394   -1.13030992864609
O          -1.30291288758649   -1.16150876798620   -1.05621672564102
O          -3.21973580536052    0.14557709321672   -0.30247988632947
H          -3.37467954010769    1.07756043741450   -0.18388349085371
O           1.16845618414827    1.35578046472291    1.43240949951018
H           1.65544215148569    0.61293714437104    1.80461971148822
H           0.23046928148852    1.06376254873878    1.41916535836728
O           0.88538550539064   -1.56771638178512    1.34135737866727
H           0.05666188293474   -1.04487708418370    1.26261466346486
H           0.61673994232739   -2.45592552923900    1.58032694771830
O           1.24197574683833    1.31392586194624   -1.10807481403757
H           1.36741320119929    1.45489699578715   -0.09675987311449
H           0.20867691759840    1.40903990681587   -1.22965856985517
O           1.31189812569982   -1.17217805193360   -1.27427476708415
H           1.40128652352806    0.26940676479097   -1.27125329055491
H           1.43108448152212   -1.44358664319757   -0.33882632827879
H           0.34987410346373   -1.31174495162334   -1.42826397812756
