    19
        -40.91340056
S           1.20687458273074   -0.88756970856547   -0.69048761309248
O           2.51174940066899   -0.85840677490833   -1.25087879460155
O           0.23519495559686   -0.02675825511028   -1.33917966158674
O           0.65933463710670   -2.29523558349083   -0.57823158982968
O           1.27327466945596   -0.44108072351992    0.81876638849315
H           1.63867762718030    0.46088229778340    0.81137836108799
O          -0.92743716242324    1.74210393551385    0.33697006041756
H          -0.58346825931993    1.15134638220527   -0.35820309997333
H          -0.19315346858271    2.30305634122884    0.59641200052366
O          -2.06835297907717   -0.24429806755119    1.75593170758606
H          -1.63970655805426    0.55087497482326    1.37611916852651
H          -2.95445121138045    0.01765256798678    2.01242001686887
O           2.11228125243991    1.80254331334394   -0.36431920603071
H           1.53649236306514    1.55311346294686   -1.09792971429997
H           2.99858523045609    1.54596728755837   -0.63496975699065
O          -1.78605673468956   -1.76993857112942   -0.38899219302408
H          -1.73539792061608   -1.06202697146043   -1.04150496425761
H          -0.36865781537776   -2.21783932566519   -0.45099602954958
H          -1.91578260921599   -1.32438660196567    0.48769489976622
