    19
        -40.92221094
S           0.50598075031269   -0.42037295462236   -0.82918511522904
O           1.80302539599259   -0.98519688043550   -0.63138364785747
O          -0.07348318026365   -0.54164277198426   -2.12999274979441
O          -0.50282427342704   -1.02911666324717    0.17946555506672
O           0.57532582353034    1.06465455247475   -0.40211874105927
H          -0.32826841977741    1.49605889361563   -0.58089983350505
O          -2.67002534256401   -0.35763663987429   -1.60023153179694
H          -1.79572695348049   -0.55151499933443   -1.99271480368313
H          -2.75139309650774   -0.95369048047232   -0.85143582437154
O           2.92933496966741   -0.71115321190035    1.75444622271227
H           2.67282316704751   -0.76899519203551    0.81049514306503
H           3.32782107152573   -1.55521675906368    1.97541302310606
O          -1.74485695170582    1.99135120050273   -0.88492063950192
H          -2.24301913587255    1.16263215133692   -1.11881146019880
H          -1.74015481867987    2.53138541499503   -1.67869022652427
O           0.43611172648215   -0.11270464732769    2.35272713751205
H           1.39711187428155   -0.34592610953008    2.29122878302577
H           0.39080864977908    0.83934118563610    2.22928978471172
H          -0.18859126605015   -0.75225608927003    1.10731892495902
