    19
        -40.90185393
S          -0.95415623609004    1.67389446203763    1.38048651183197
O          -1.57633640644415    0.74484861584706    2.27179816176118
O           0.53992867521662    1.79833973534277    1.74464428526543
O          -1.12204844723923    1.45540137483333   -0.01805980693036
O          -1.47718560666069    3.11868680257947    1.70248105086600
H          -1.57099082731650    3.19271231396476    2.65103650405323
O          -0.28141283363254   -2.34590767672731   -2.78176176065260
H          -0.10612384093156   -3.28470371787755   -2.70239352601371
H          -0.43611938023560   -2.01587840796432   -1.88116881600923
O           0.12475818213476   -0.90989275947743   -0.39489747433486
H           0.86219675175870   -0.68225253502541   -1.00206131987297
H          -0.44452865956163   -0.12075608464408   -0.38023253028571
O           1.66379855623494   -0.40238060527930   -2.56528307461446
H           1.11171596927123   -1.10577673903940   -2.95190100823578
H           1.37494659287959    0.41974768502959   -2.96585383868014
O           0.81991791763230   -0.67019977780952    2.14458472733037
H           0.83872046294488    0.83931836069768    1.96146781417113
H          -0.03810460386403   -0.75071010684921    2.57852804954310
H           0.67102373386876   -0.95449092966057    1.20858603076075
