    19
        -40.91864560
S           0.35532103109105   -1.08090787836618    0.31607898086097
O           1.19187758354391   -1.52767977855322    1.37464680519280
O          -0.98813249537185   -0.68622145213654    0.66907610485308
O           1.03727647811409    0.15350004430290   -0.36934095325895
O           0.29479311557245   -2.09403253439867   -0.82605960752131
H          -0.56225879886346   -1.88838209379358   -1.35395162666746
O          -0.48165638378606    0.93825744962861   -2.53324356390964
H           0.06852548857694    0.96870751982856   -3.31840568676081
H           0.11505069519462    0.81209304066523   -1.77792241670093
O          -0.52596205749912    1.29633619768142    2.42768099509903
H          -1.13937529241830    2.00770570715590    2.23294323160482
H          -0.81262232236434    0.52822226529742    1.89885214851147
O          -1.85471609149653   -1.26591077084503   -1.86030951655021
H          -1.53472081212453   -0.43425875261705   -2.27269173275065
H          -2.16902085086439   -1.01593943323866   -0.98088979065947
O           2.03827552598974    1.08900791664495    1.73636597572758
H           1.53780174584303    0.64029644822985    0.39012830297202
H           1.18412427384259    1.34300638058354    2.15259011474973
H           2.24541913716411    0.21619970360481    2.09445224545616
