    19
        -40.91334529
S           0.69375463065857    0.20700490294692   -1.96780674159081
O          -0.47366237566871    0.49633742925435   -1.14002465558458
O           0.68327351640939    0.71840793288747   -3.29307693485337
O           1.92581922244776    0.48057639630291   -1.21045300659197
O           0.66289435767462   -1.40419092495003   -2.10408894231103
H           1.02775615710517   -1.52993161147704   -2.97398786560535
O          -0.31568060046710   -1.47574651521778    0.52255365652624
H          -0.48470658880159   -0.78767417576188   -0.17337594382458
H          -0.07258165260447   -2.26738616271119    0.03794394162605
O          -2.08872530054690    0.02296924412743    2.08713545681504
H          -2.95522022037073    0.00924601346394    1.67715607408002
H          -1.58265077497708   -0.70472911978620    1.69615400423491
O          -0.40013572973898    1.90870579468759    1.15793443883781
H          -0.57086569768774    1.69694812726598    0.22072470859634
H          -1.08479702252265    1.41615149962707    1.65970075043139
O           1.50271324179669    0.28436697692706    1.18989695287222
H           0.79866709100416    1.06870683377423    1.30918619204420
H           0.93590444535878   -0.53619521503512    1.17284672547828
H           1.79824329089946    0.39643256383293    0.13158118905723
