    19
        -40.91689897
S           1.50867856746214    0.95188710241098   -0.42853018283500
O           0.88366212099857    1.07228515377266    0.90190714573673
O           1.10054948407805   -0.31976381754659   -1.03633782514015
O           1.28522082832878    2.07726068119353   -1.27870013263249
O           3.05597276439576    0.83740944028344   -0.13514903965365
H           3.12344127962250    0.22459761324539    0.59282746275614
O           0.36810176439597   -2.24715425612142    0.55443088315871
H           0.69446628711351   -1.51632757470855   -0.02614984392791
H           0.31215638958764   -3.02110003906400   -0.00963537069294
O          -1.07170953825846    0.90521007605365   -1.91711995135087
H          -0.57856845399641    1.71659260501518   -2.10469747258129
H          -0.36104363271682    0.23976544002773   -1.81635655271955
O          -1.92237319979911   -1.28991985103620    1.41342620976860
H          -1.90634898992523   -1.32880673332611    2.37168813624235
H          -1.07684085367914   -1.71242445074028    1.10308924986475
O          -1.55289856005946    1.07651879223896    0.56826716423530
H          -1.54282867794583    1.03808760597684   -0.46321602917393
H          -1.81161657375749    0.13536282688828    0.90818654366372
H          -0.50802099593328    1.16051938565375    0.80206960532823
