    19
        -40.92021805
S          -0.58410516778284    0.59288749294472    0.65516049150720
O          -0.88560214575423   -0.82132481272375    0.79150964204210
O           0.92117883694273    0.78413710740360    0.63674929167347
O          -1.19671363211359    1.23538309394998   -0.46416328638857
O          -1.02218928888944    1.31091837375956    1.95062521998175
H          -0.79474700089767    0.69275099172340    2.68908398402434
O           0.27593282860644   -2.12692509375961   -1.24973908480461
H          -0.27109385357250   -1.72653373730712   -0.54731057959126
H           0.61174169334960   -2.95411242486223   -0.89909321623319
O           0.07404446260893    1.65019586124210   -2.79461888115286
H           0.22842694324463    2.59505590269202   -2.85094834291510
H          -0.55021961128298    1.51829761080865   -2.05589330390272
O          -0.57805742397969   -0.79741606241463    3.41076045739693
H          -0.63368701396096   -1.14459396464461    2.50005677668433
H          -1.34321928771554   -1.13120259166447    3.88546792095145
O           1.77333796093284    0.04592838109500   -1.55668583788241
H           1.26965354965582    0.63209422304293   -2.17383391324874
H           1.36935157010081    0.47961061702709   -0.31339587932900
H           1.33596661022813   -0.83515096720054   -1.61373146932392
