    19
        -40.92019818
S          -0.39640205575387    0.51302975593003    0.88397723644362
O          -0.36968885281568    1.91010577592147    1.17525043382312
O           0.89130425336845   -0.14109019499747    0.89054402681387
O          -1.36924789596599   -0.18609204815910    1.82401055302262
O          -1.02659234350534    0.26446687762552   -0.51602201461288
H          -0.27605658785524    0.44045456045764   -1.16943726482629
O           0.60311083598611   -2.41323577728597   -0.44533931517940
H           0.48880889183611   -2.12064094309145   -1.35238591394124
H           0.88296146618504   -1.62755688519052    0.06825648635672
O           0.86199248405775    3.23950938576972   -0.80881374660743
H           0.27806425447918    3.93748229540255   -1.11152454989185
H           0.47106762231178    2.89356908878061    0.01678047055863
O           1.14400190436651    0.77319872184233   -1.74670463743006
H           1.15230608964820    1.74951876445269   -1.62461954390173
H           1.70443234663955    0.43036811857186   -1.03994506524080
O          -1.51054728368219   -2.62409765922392    1.11166694937280
H          -0.77581937302646   -2.68515633360252    0.44986069749681
H          -1.26397210022000   -3.19100715106722    1.84650925146283
H          -1.48972364603011   -1.16282634219427    1.54793592629688
