    19
        -40.92001933
S           0.80894664173123   -0.52263418619847   -0.13864950374024
O          -0.53304010442127   -0.96463108200488    0.49513986502626
O           1.82672128479515   -0.64574870462868    0.85558825846934
O           1.02778062204703   -1.19316654687747   -1.38058511985958
O           0.54777506554451    0.97372583530207   -0.46288213017627
H           0.23232382120588    1.40371663648022    0.40429375607001
O          -0.89853691056450   -1.53110916899150   -3.19614241122296
H          -0.56228778282405   -1.31627369661638   -4.06804376271623
H          -0.12307500440790   -1.56069219019704   -2.60126679413404
O           1.49787729666624    0.54586232167089    3.20254667711802
H           2.33562958037636    0.95221934635954    3.43282608188387
H           1.67797879578700   -0.03567700314816    2.43483232133525
O          -0.34884229949390    1.76241767358224    1.77926418649857
H           0.32278971063660    1.42611168342731    2.42600863086476
H          -1.13523363241887    1.22815666453656    1.92084723513706
O          -2.03500885272411   -0.02120892494435   -1.33493897528474
H          -1.24501445857829   -0.69821883288731   -0.17308819585630
H          -1.56799394436713    0.80464017507366   -1.49682661710986
H          -1.82878985897336   -0.60748999993610   -2.09892352228197
