    19
        -40.92019814
S           0.25497169310515   -0.87671379487270   -0.60955414322992
O          -0.27259656952663    0.33246967660340   -1.19737435964918
O          -0.52566617733982   -2.05094557461246   -0.83116011011472
O           1.68830436133608   -1.12327373653763   -1.06109475636552
O           0.41165786672270   -0.61176439363397    0.91503126877171
H          -0.44746954049387   -0.15354021215080    1.18513839855814
O           0.89780687415332    2.36084791862723    0.04663349158548
H           0.38073239737071    1.74203611258850   -0.50926058384076
H           0.50439379466611    2.33619895901068    0.92185852231691
O          -1.86208116968150    0.51994598793002    1.10177010901619
H          -1.82855160533994    0.88324219152793    0.20842209798211
H          -2.42658761398655   -0.28247981115148    1.02731497158079
O          -2.86415934301512   -1.85731388410764    0.47920654485245
H          -2.10629179785271   -2.03624425544029   -0.11040274733666
H          -2.96225140664640   -2.63298352198195    1.03463039194382
O           3.05518586729499    0.92795333797838   -0.43228809951932
H           2.34806938395109    1.56703533847303   -0.16202983855001
H           2.28504827482879   -0.33910682240956   -0.78963581772494
H           3.46948471048175    1.29463649411001   -1.21720535027422
