    19
        -40.91173140
S          -1.09484357205751    0.65152096844052   -1.33151390378467
O          -0.24065999881374    1.30339020366970   -0.24394484815957
O          -0.25225769065266    0.29049578882131   -2.43150525518575
O          -1.93965818174722   -0.34111808906890   -0.76188911043280
O          -2.01426255954366    1.83763867762164   -1.82689544498323
H          -1.50287188041026    2.34671668996563   -2.45205330102374
O           2.00169247790561   -0.22513424165333    0.66867866405121
H           1.51171234410529    0.54347153714104    0.35382357041514
H           1.93698769468697   -0.87695357916930   -0.05509003613900
O           0.43868440969162   -0.95680270232572    2.67558795379627
H           1.09180252613852   -0.78953613348365    1.94920313860768
H           0.86788133391127   -0.68796021088738    3.48948149933164
O           1.44015436587173   -1.64049446424363   -1.57358711923691
H           0.80436419373364   -1.00870608700127   -1.95364462232283
H           2.00538949858422   -1.92646794034397   -2.29356418227683
O          -1.47012458594584    0.52971458668873    1.72861794630573
H          -0.80592011739816   -0.07004611378629    2.18640040688090
H          -0.75625396854651    1.06731027325443    0.69536045402600
H          -2.02181629893488   -0.04703915196561    1.17653418977329
