    19
        -40.91955064
S           0.85666996000804    0.21654426208880    0.76221508368128
O           1.43096495114432    0.02455952749675   -0.65388659341652
O          -0.18872949639254    1.21186730084953    0.70051095617597
O           0.48186331374676   -1.03364932126955    1.33415400816682
O           2.06756542452662    0.80136817264115    1.51657556561518
H           2.21371653137189    1.67882149639622    1.08106651749483
O          -2.69571512182652    0.20849032388871    0.39267503487269
H          -3.16949691879035    0.39071762757051    1.20624067267547
H          -1.83645851696258    0.66002179236465    0.46916917890142
O           1.79398947746363    2.86908768771664   -0.03068393071600
H           2.01979807343150    2.57423462036237   -0.91728472409507
H           0.85908228131314    2.64419155471262    0.10544144834414
O          -1.56520249557184   -2.21062896613569   -0.03615941146024
H          -2.17900333130478   -1.45195030659557    0.02946676806918
H          -0.90154430169979   -2.04971345965987    0.65328334715048
O           0.04853211704407   -1.61083094037424   -1.95406998942396
H           0.56568724573275   -2.39949190090638   -2.13458922367875
H          -0.66596478351905   -1.88696456099456   -1.29521060421192
H           0.86424559039940   -0.63667488990885   -1.22891410404841
