    19
        -40.92174064
S          -0.13796632656500    0.75138327008662   -0.46887631683427
O           0.47576492458632    0.85265522115099    0.91553091314538
O           0.82270893301564    0.20024790120366   -1.40107780975606
O          -1.38752351416001    0.05078169985087   -0.41666913740826
O          -0.40683497129515    2.22310025865125   -0.85074998777510
H           0.46901828415793    2.59217504538424   -1.13491732208099
O           0.37029705169325   -2.31961209178614   -0.52220541476235
H          -0.56140161416977   -2.40990111127782   -0.73895265299302
H           0.67501818788665   -1.52409333870041   -0.98902428211779
O           2.00130356493097    2.54305432911377   -1.76640638746668
H           2.09364356539748    2.78318152913244   -2.69189754755392
H           1.92149881872862    1.57182011288317   -1.73212194514731
O          -2.26420496075930   -1.16719444013346    1.81796699959189
H          -2.78104671102104   -0.54531632996079    2.33288266267907
H          -2.10987682959880   -0.74733772353699    0.95049711680427
O           0.38226896379429   -1.38302610995027    1.96291454886349
H           0.52566194520823   -1.93013808651571    1.15483396567929
H           0.49675033499528   -0.10101598675450    1.43820507153541
H          -0.58507965521239   -1.44076415260480    2.14006754286053
