    19
        -40.92071401
S          -0.47118001447695   -0.28755240783821   -1.37488274053411
O           0.92705458515402   -0.38257661814165   -1.02396153400470
O          -1.11192494424247   -1.56366701177844   -1.59540650741606
O          -1.20017667839461    0.52346521567498   -0.37963698187044
O          -0.56984339727196    0.51306996141297   -2.73362468221117
H          -1.37148372846646    0.18703435519882   -3.13260811977910
O           1.73103737997837    0.70233939950127    1.23108806789266
H           1.71613770103259    0.31953317323531    0.32373644310092
H           1.39593878094065    1.61442739341280    1.10132625976278
O          -0.37201253147047   -0.48669055329791    1.77132878714353
H           0.59867121241695    0.02131417209464    1.70347987186507
H          -0.87582914567168   -0.04495775625679    0.99357892251638
O           0.14216273476400    2.69384337499818    0.44852149057946
H          -0.40012439551695    2.00018421690798    0.02321748130004
H          -0.46973528586393    3.31291924523107    0.84951089948343
O           0.05075111162459   -2.63876490638377    0.48932051185233
H          -0.47610841398458   -2.41302042774726   -0.31352822038667
H           0.96690863738289   -2.62881935338638    0.19690139605511
H          -0.21024358812100   -1.44208148284529    1.42163865469466
