    19
        -40.91416428
S          -0.98361131800050    1.08640402233686   -0.86767994186682
O          -2.15820721507532    0.99912116952465   -0.06469026576047
O           0.26348068468813    1.36982423206590   -0.22244064326958
O          -0.84995083584888   -0.15578485031248   -1.73854241931449
O          -1.21726531419951    2.24401944636436   -1.91698394116135
H          -2.15322188289894    2.27963130537828   -2.10463802733813
O           0.64443539885187    0.99326375119000    2.47321129174522
H           1.55054794549715    0.69016173532329    2.56063036076953
H           0.54913633532875    1.32236801045520    1.56492835651623
O           1.12434793679179   -2.21303657502333    0.36566249637345
H           0.34343114290924   -1.78025013530998    0.78823000145892
H           0.84827625537902   -3.10642006395946    0.15536311788958
O          -0.95441770468457   -0.96098841357690    1.45331359399875
H          -0.50299333416412   -0.35009704765703    2.06697135930574
H          -1.58887895378996   -0.41271079276491    0.97475730982235
O           1.58865967669941   -0.58271588900520   -1.61695813465827
H           0.17721446175606   -0.39462497430890   -1.81087489714874
H           1.76585407475862    0.24899565007019   -1.15929595910557
H           1.55316263586871   -1.27716059084844   -0.90096367804170
