    19
        -40.92007347
S           0.89446012320024   -1.02478294288173   -0.31289714141885
O           1.30532804689308    0.34337159696763    0.06095857231622
O           1.04269740739610   -1.94020577113314    0.79629851425777
O          -0.40443152107712   -1.02265290761647   -0.93309300711532
O           1.93352795702356   -1.47722681674530   -1.42177362454295
H           2.66646511794878   -1.81789037892623   -0.91771529717530
O          -0.87683494188309   -1.08506575014844    2.33894241981693
H          -0.64283230717971   -1.29845595934554    3.24496240354310
H          -0.20039280643625   -1.52308483980478    1.76502313783447
O          -1.88785251013858    1.13607629408083   -0.75623056916415
H          -1.26328178907003    1.61112475945939   -1.35253981399279
H          -1.63670921014135    0.19544521295969   -0.89631074511184
O           0.35226881126456    1.64813242445592   -2.09339701806209
H           0.41284495826597    1.01770182551159   -2.81385224245778
H           0.85159453861365    1.25510352571869   -1.35319198218587
O          -0.63349671651794    1.25874675000723    1.36857194833877
H           0.25751000714161    1.02077847340999    0.91511791681262
H          -1.30732845886631    1.30259374642212    0.49317388202561
H          -0.86353669643587    0.40029076760254    1.86795262627962
