    19
        -40.92343546
S           0.55999158566361   -0.21365347160768   -1.57691743030903
O          -0.68632046886349    0.45386542444831   -1.23586082838651
O           1.72304035430434    0.53815779913816   -1.10359534012991
O           0.59180385514576   -1.59178415481811   -1.13528478438616
O           0.64354503535818   -0.21622515848452   -3.15013139314041
H           1.46321656313925   -0.67158913469518   -3.31543484963415
O          -2.04666574947557   -0.62202465898363    0.77392975191403
H          -2.68716838218354   -1.28581601374057    0.51503152963690
H          -1.64109023441378   -0.29176017009268   -0.05801911369085
O          -0.80391124477588    2.02900437599983    0.91507693218764
H          -0.81630372210162    1.69937437988261   -0.00764622786765
H          -1.51849972857884    1.55875611520745    1.35856874722444
O           1.41577363644758    0.85805969728427    1.34001146740615
H           0.57599152843928    1.44989596477876    1.31523848548245
H           1.69059128757049    0.79214455682911    0.33315170339653
O           0.42139299305996   -1.42321271394838    1.47001175482826
H           1.06208540506760   -0.13074736518697    1.54054264607480
H          -0.54200879224780   -1.24389547871336    1.48596256718080
H           0.59453608620167   -1.68855003142211    0.53536437373393
