    19
        -40.92221086
S           0.52004029924485    0.54167810422030    0.74098638199519
O           1.15497701752544   -0.17596275534997    1.80037901612270
O          -0.98770941965968    0.19907746598271    0.78513922480009
O           0.71142492737598    1.95724414617473    0.69748429344545
O           0.96835130355393   -0.02318944418619   -0.63215052081087
H           0.63508269867746   -0.98427063141062   -0.67255909319344
O          -0.06401802653892   -2.33898797135101   -0.51164198033976
H           0.24838351300471   -2.67239989809512    0.36744875276454
H          -1.00122596902181   -2.15603697924148   -0.40254173867240
O           0.77806517986507   -2.79811965109686    1.94054646474833
H           1.63039524419355   -3.19470408106605    2.13109807331186
H           0.89204485023182   -1.83279914339102    2.06421270965118
O           0.30333200135467    2.49421713374420   -1.87217447555999
H           0.82433629907504    1.80570096558824   -2.29291101318849
H           0.59126227507548    2.50325952182171   -0.93780355347403
O          -2.02886429413832    1.60440656415956   -1.06314851618835
H          -1.46422883041239    0.74123185717822    0.06855208459401
H          -2.49171882632858    2.36167556544011   -0.69697418501871
H          -1.21993023309196    1.96797922086897   -1.51394194498212
