    19
        -40.91346204
S          -0.97294599044317   -1.65522745548766    0.71158726416234
O          -1.96814207023183   -1.18891687766464   -0.33825251185325
O          -0.06952281103612   -2.62276364971510    0.17154155587060
O          -0.36017602107115   -0.53210645121782    1.36562559844988
O          -1.90190382664147   -2.36654263900925    1.75820055595101
H          -2.14859311947807   -3.21151929184871    1.38737460597743
O           1.54871300804871   -0.45986673196797   -0.53737172940491
H           1.67519484156681   -1.39645153632341   -0.71696231852010
H           1.04822785308639   -0.44004165220394    0.29806496628302
O           2.14516695137649    2.25161958713233   -0.09786170340539
H           2.41103922990892    2.70030357376596   -0.90219482146498
H           2.20591871343583    1.30146105826503   -0.27101541863087
O          -0.53072515217455    2.13317722639208    0.50530082952658
H           0.41283526985698    2.37354167597016    0.43700427763636
H          -0.56669091711205    1.38885910786579    1.12176869796794
O          -0.76159164549497    0.58191823814437   -1.56423741137214
H           0.15022176559511    0.23732382485937   -1.50568065084368
H          -1.52133312398702   -0.41090709416758   -0.94341661816032
H          -0.79569295346283    1.31613909665188   -0.87947516931223
