    19
        -40.92025439
S           0.77498291992313   -0.30004911096769   -0.36138274015861
O           0.54472900400950    0.51458699201626    0.82151602295805
O           0.09394053900971   -1.58853091232792   -0.25214241435826
O           0.37826050537110    0.42913350136160   -1.57049897912695
O           2.29953432133619   -0.56763028179580   -0.50858886266917
H           2.48361136625087   -1.37210924543683    0.02820069730142
O           2.15302440371626   -2.86398513334383    0.75598534860322
H           2.38805648026420   -3.63504400365449    0.23449946050787
H           1.23137775017433   -2.63633813797275    0.51916592816961
O          -2.15352716050710   -0.46853569717940    0.51455736123360
H          -1.87437050110787   -0.13300314833067    1.37218687643498
H          -1.41150148703990   -1.04276123084865    0.21311659180544
O          -0.58546882891910    2.83982534708172    0.61892482110964
H          -0.08468099057876    2.00956302517820    0.83527397675660
H           0.06530619828291    3.47178512731979    0.30740596545898
O          -1.80780637395339    1.45131477329005   -1.10874757501624
H          -0.88351353580485    1.02649605352452   -1.46349642733485
H          -2.14937994947214    0.69402070300891   -0.49708641289419
H          -1.46257467097356    2.17126136914579   -0.45888964841220
