    19
        -40.91499828
S           0.87476465308051    1.16129868493033   -0.85516047221980
O          -0.56594828255311    0.61567016563476   -1.08295540519456
O           1.71952504747631    0.65327804785892   -1.89226470608772
O           0.79259416173991    2.56280875815670   -0.63496413556082
O           1.30690150036900    0.52094275796109    0.49900983961167
H           1.15991538875667   -0.45820345487590    0.48604593721920
O          -1.34924540800800   -0.58499863362073    1.75886323495849
H          -1.28869552168731    0.34857311306427    1.45578767870914
H          -1.31154923052565   -0.54048295689585    2.71630662279627
O           0.52023784398550   -1.96951063653238    0.53856370649636
H          -0.29306717645628   -1.57198704061239    0.95068481670151
H           0.90718647511723   -2.54730572570170    1.19990706934621
O          -1.19321914667046    2.05996395246243    1.17659980292728
H          -0.41238671287154    2.34289203665084    0.67357934240291
H          -1.94774903409042    2.29401128291507    0.63077489679979
O           0.19556078658386   -1.55035189609707   -2.21283400213858
H          -0.48807467798762   -0.25467108275372   -1.58065051361090
H           0.98933649630791   -1.03054820928597   -2.42045572929123
H           0.38391284746532   -2.05137919328797   -1.40683797387498
