    19
        -40.91793136
S           0.95938947331020    1.46358116560837    0.15329576417995
O           0.48001980689668    2.54575053256269   -0.67525007546613
O           0.00860692399541    1.13221089362295    1.22694782759057
O           1.33644271101051    0.28076451297511   -0.59293233311497
O           2.26824812431941    1.96846785251306    0.88266142295471
H           2.03503916533846    2.82795730265370    1.22300000987755
O           1.25542724048883   -2.02101084214935    0.63930979830472
H           1.84914303009277   -2.58046691016172    0.13494526533603
H           1.34368752434556   -1.11788772082955    0.25143462608767
O          -1.33439783418587   -2.35177701304936    0.49838538389818
H          -1.62000922266600   -2.66463578292086    1.35915580355098
H          -0.34063854741199   -2.29317690635068    0.54146133467264
O          -0.94189897415594    0.83325580291483   -2.05807166465742
H          -0.19029756694668    0.24037866701106   -2.17647374537666
H          -0.53010074646849    1.66113887427372   -1.72172917854143
O          -1.94312127581425    0.08862259135613    0.15331758108589
H          -1.16421879692291    0.56739478447787    0.71285547345346
H          -1.70127116408922    0.34551583754853   -0.81546983733956
H          -1.77004986116441   -0.92608363203161    0.26315653339888
