    19
        -40.92119581
S          -0.96346417172937   -0.91529794028638    0.11011944567158
O          -2.37506494080199   -0.74699403581375   -0.02355192107176
O          -0.36742298470744   -0.13901998985948    1.17068906027737
O          -0.60821415179575   -2.39116678971195    0.26497472473297
O          -0.24889949388855   -0.55387306203614   -1.22240911254953
H          -0.11436380314232    0.44008905616545   -1.28643528661885
O          -2.12227104731904    1.91443496553295    0.42141977330612
H          -2.47685843872795    1.02983901654245    0.22082293816241
H          -1.74515485153393    1.83212866460863    1.30250323217715
O          -0.05245426173008    2.00643705518252   -1.20349100929610
H          -0.32309931975830    2.41947860988687   -2.02685896089829
H          -0.80924007209779    2.12632481797948   -0.57029866277369
O           2.13103241203831    0.35189127921234    0.43377862059851
H           2.03499133006869    0.97488381074649   -0.29082873475393
H           1.25624979116056    0.31708445262437    0.86800418915855
O           1.94464853685044   -2.29525691731104    0.26588337594506
H           2.29180327499164   -2.59575852204280    1.10948825717693
H           0.40697336610644   -2.44761236637825    0.23788016827725
H           2.14080883596078   -1.32761210524285    0.21830990255940
