    19
        -40.92174068
S          -0.25153132667843   -0.02774466792444    0.85952458424556
O          -1.17420838483023    0.63142820814820   -0.14917401194000
O          -0.26383309709139   -1.46451511526700    0.68233019533141
O           1.05185498980286    0.56740154862103    0.81468358850793
O          -0.90619470076974    0.30660528958568    2.21730271612403
H          -1.66107601974543   -0.32952986512744    2.31705420728174
O          -2.48659676817911   -1.74885820578990    2.09226608712560
H          -2.41250692694623   -2.40372686380191    2.79108691493482
H          -1.81045706949894   -1.96852920004433    1.42485684660483
O           1.41596699814404   -1.31038255533021   -1.43457446344856
H           0.83260346587608   -1.59622373249795   -0.71235616401917
H           2.18608527545851   -0.92196593362521   -1.01129407055961
O           1.76393772981579    2.35865271339230   -1.06404140518681
H           1.56296933577929    3.24197113659695   -0.75061014963582
H           1.65044050234871    1.76135441420911   -0.30050207904035
O           0.02348988946706    0.77674949049295   -2.30531807146085
H           0.67572257033600    1.48164327120798   -2.08597857497286
H           0.53198015124294   -0.06642133848553   -2.24731073554367
H          -0.72864660551117    0.71209141557209   -1.13794542455133
