    19
        -40.90997408
S           0.87806268681552   -0.51283171271947   -1.16353043057966
O           0.46721768578129   -1.65504679914702   -1.92385890515916
O           0.03625681640289    0.64198383643750   -1.26233521554474
O           1.11102699651678   -0.88697937337235    0.29260904515067
O           2.31397229369822   -0.09930795233671   -1.62874462981880
H           2.82371267529589   -0.90106364657785   -1.72363233088540
O          -2.05167243337319   -1.31166528084283   -1.04446327147687
H          -2.23384145359593   -0.47593703585558   -1.48176011452100
H          -1.25925348134796   -1.66773988848105   -1.48136087184235
O          -0.93326670569399    1.77950504540048    0.94520823716997
H          -0.56809698107828    1.50589619913128    0.07950924222261
H          -1.25842787506173    2.67522693940138    0.84234278216924
O           1.76802215016522    1.46794155622039    1.91016579462497
H           0.83959070043219    1.70437384057795    1.79467427408015
H           1.86887373508687    0.59723408609371    1.51679712909826
O          -1.09709290745887   -0.87629041149267    1.37848493821564
H          -1.64191504293418   -1.13014513015111    0.59215262707332
H           0.16375751715449   -0.93732118598435    0.84889128304823
H          -1.22692635681536    0.08216690374483    1.50885041697947
