    19
        -40.92037966
S           0.79810802813962    0.71810246739872    0.12376638460544
O           1.24089422325593   -0.12917074221627    1.18469200307572
O           0.78280437469507    0.08629651572828   -1.18531204939486
O          -0.57602669955713    1.29522193444210    0.41395440971695
O           1.70563679101510    1.96363582597862    0.05052181274855
H           1.52411592740771    2.37888764542618   -0.82969952300465
O          -0.90187605759463   -1.98588514058436   -0.94177661224852
H          -1.30394420376396   -2.13675731252246   -1.79963060709478
H          -0.19399630044206   -1.32697828630317   -1.07905024212145
O           1.13193017910857    2.38054771444102   -2.45239108417762
H           1.88197434836325    2.37152550943860   -3.05218439445700
H           0.87246552724817    1.45163388307325   -2.30575327626173
O          -0.37840670861708   -1.48419807721750    2.85423384364448
H          -0.12575947870967   -2.40535448128520    2.76339254059365
H           0.32203302903035   -0.96837077227511    2.41320612878633
O          -2.06132881351575   -0.58987541092043    1.01402007229559
H          -1.28811320260871    0.53130523228134    0.69460950716320
H          -1.80905231987108   -1.22026836298442    0.30223664508779
H          -1.62145865338940   -0.93029811252273    1.83116444065726
