    19
        -40.92174062
S           0.64593265733210   -0.06675696212189   -0.61666620688870
O           0.35972813957446    1.32509254133484   -0.89376222198030
O           1.01098096408010   -0.24415728778986    0.84560025396861
O          -0.39776821757205   -0.97573117407823   -0.98993741659811
O           1.94044909421587   -0.46126546579449   -1.36040300255878
H           2.54071654617975    0.32583394708317   -1.29348681522061
O           2.92313618376747    1.93302131787608   -1.15741811477155
H           3.12152774597638    2.39761183859449   -1.97445074754948
H           1.97809867460366    2.08178487763990   -0.96883606973043
O          -2.11832555174899    1.12328182235128    0.17623091928800
H          -1.29720130636003    1.41435861392057   -0.25360808232306
H          -2.50507986281842    0.47019526591833   -0.41286465212382
O          -1.69844152232928   -2.50737058997024    0.80008670645382
H          -1.30083126440792   -2.05587491099679    0.03146886208731
H          -1.23894243092944   -3.34370650737914    0.89152913355603
O          -1.08054089398916   -0.30696809010281    2.15910875683190
H          -1.60397028908030    0.33993336167472    1.62974553648184
H          -1.42101135550734   -1.19100645444084    1.88852142574838
H           0.14154270876646   -0.25827616391897    1.49914172536436
