    19
        -40.91521770
S           0.25729509840336   -1.49240675964528    0.51653135621229
O           1.51081852308908   -1.10183245862829   -0.22196828545026
O           0.02148818608322   -0.58272900725928    1.61235585936710
O          -0.83593818460226   -1.68398057938380   -0.38101144960853
O           0.61764523317369   -2.88670473553382    1.14691077600793
H           1.29643840338882   -2.73614715677293    1.80154879381048
O          -2.14145142963652    0.63271560741122    0.41937256971544
H          -2.43386294943555   -0.15234709397355   -0.05272071944143
H          -1.49078420688104    0.30527905416284    1.05804252454999
O           1.08072656533900    1.88268485737300    1.11570220103719
H           0.81019731280135    0.98434265798723    1.36991080189012
H           0.74630447845744    2.47053773709309    1.79620504876022
O          -0.34264593920343    1.86403987923805   -1.19388602946773
H           0.31120122177717    2.05558571423121   -0.49350752009094
H          -1.13925345057437    1.56422913826431   -0.70860573294062
O           0.54912544694182   -0.25363790837619   -2.29493339003119
H          -0.22662926304511   -0.82951384058340   -2.29010973565909
H           0.22016671318932    0.66471563423487   -1.97406538776666
H           1.18915823066108   -0.70483073972599   -1.22577167089199
