    19
        -40.91793140
S          -1.48028626893375   -0.10151045754532   -0.94161764821820
O          -0.22640063753997   -0.57382950518385   -1.55117806557589
O          -2.33150603559970   -1.19851489623063   -0.54243026310177
O          -1.21909616631609    0.84979474310802    0.11877274659267
O          -2.23424209326359    0.69465691269162   -2.08081013987062
H          -2.52985263895854    0.02120714635948   -2.68748623156572
O           2.59943796726390    0.38672323921965    0.80788490188581
H           2.01794626760505    1.14634091894432    0.52937799055476
H           3.36786106194302    0.41600599013005    0.23432382342019
O          -0.97972716653570   -1.41277848407009    1.69179991792623
H          -1.62914317259844   -1.55315148130315    0.96598101942134
H          -1.04957413836919   -0.46867805945671    1.87672642471716
O           0.97432620658204    2.26220297502798   -0.01619710588055
H           0.12566462348395    1.76068261506115   -0.06044359881505
H           0.79534300346327    3.02993903346867    0.53003420462525
O           1.10414211904065   -1.58843119501218    0.25156717080973
H           1.75576676142235   -0.83404816768557    0.52994042338354
H           0.35005404910655   -1.62657681785074    0.95354441138143
H           0.58928625820155   -1.21003448967137   -0.60978997170118
