    19
        -40.92025498
S          -0.06933104156659   -0.11650276487043    0.89930836200832
O          -1.09645012659912   -0.11388442472773   -0.13068663007986
O           0.82738262275607   -1.26366491419496    0.72587596264446
O           0.65995893287251    1.15007426419833    0.91566697307439
O          -0.73999744113512   -0.30813154153092    2.28890444215489
H          -0.99251603109386    0.59413921535351    2.59057984083374
O          -0.87162716961055    2.27883007350131    2.72276622670162
H          -0.23705107273481    2.16760857537938    1.98648352308389
H          -0.36717677252985    2.59992038857618    3.47392114440738
O           0.99902827039442    1.12887614967532   -1.68638755752987
H           0.98969331803983    1.27791482421741   -0.71202704109781
H           0.08469258230245    1.24376516941603   -1.96346965296102
O          -1.05967287283180   -1.87968210856255   -2.02925329671253
H          -1.40343867129409   -2.70678896801898   -1.68625884616476
H          -1.23650674432645   -1.19488772467887   -1.33148637899635
O           1.39346179625745   -1.37720702023315   -1.66315442522780
H           0.47067370443685   -1.70340932598164   -1.98343267571824
H           1.37590941232262   -0.35760687026094   -1.82269545877122
H           1.27296729219371   -1.41936298685827   -0.59465451072516
