    19
        -40.91596538
S          -0.79760416697025    1.27608630664755    0.87480264651541
O          -0.33390881886716    0.69926026129411    2.12241104580548
O           0.18694106686158    2.10281231012813    0.21867012814417
O          -1.36561062241489    0.25525553452914   -0.01570901172343
O          -2.02588483417144    2.21514047128600    1.22555403571889
H          -1.60620734557738    2.94618069287833    1.66791402051521
O           0.03941741020288    1.12875940548634   -2.20810313771712
H          -0.85878414438755    0.82403218573992   -2.03646479790961
H           0.26043699672689    1.63436645140601   -1.39500425924962
O           1.10513081196313   -1.42760591531350    2.03810397509104
H           0.86224522315725   -1.94186975493113    2.81100816123937
H           0.65265994908891   -0.54438159359914    2.14225882261230
O           1.37796380506848   -1.09315690829240   -2.03173663294392
H           0.97421950612795   -0.18217856993251   -2.14918006760914
H           1.31127372377594   -1.53300402461411   -2.88129788701763
O          -0.09019628443489   -1.87083734838827   -0.13427437735344
H          -0.71424779308743   -1.02413329403208   -0.07718938849881
H           0.56087981510631   -1.64643322276207   -0.91499783123063
H           0.46127570170430   -1.81829299728084    0.74323456561310
