    19
        -40.92141925
S          -0.48501734296969   -0.26676845789164    1.08334446065903
O          -0.45300276474271   -1.00749382990199   -0.28339378202051
O          -1.85853798732603   -0.09919621762335    1.42993943507651
O           0.36297893787246   -0.93255554074149    2.02144737405047
O           0.17986022060094    1.09299194707326    0.75981040589729
H          -0.28896035156726    1.49664156701455   -0.04746171764585
O          -3.03808548796248    0.20483136341626   -0.93303039958244
H          -2.88584287502314   -0.66468742245054   -1.31056032631671
H          -2.82126614939585    0.11762266423611    0.01630044632035
O           2.76668176525904   -0.02984206107912    1.34526256831026
H           1.98834638392191   -0.41081682124962    1.79970240157298
H           2.62254291594513    0.91966294472751    1.34557067789846
O          -1.00213894728083    1.82076839386899   -1.36736355848030
H          -0.52343038958024    1.43420463076948   -2.10475597649072
H          -1.86003820682897    1.32757642236826   -1.29394332263928
O           2.01397643839317   -1.15173577369362   -0.89709692415685
H           2.33815333269872   -2.05499173196611   -0.87138416380231
H           0.51497144946834   -1.10669484381456   -0.57432828749502
H           2.42880905852217   -0.68951723306525   -0.11805929114739
