    19
        -40.92070656
S           0.61505581434443   -0.69321825972361   -0.68777319465653
O           0.48123395903940    0.81680637326400   -0.85528852439659
O           1.53697275284688   -1.17935595606934   -1.66165825657382
O           0.85584512054433   -1.02522357670001    0.68600561304592
O          -0.82737133110088   -1.22182676128969   -1.03050131226682
H          -0.90856345223093   -1.03416467760571   -1.99956478677031
O           1.35706002203348    0.80458778962422    2.60084261029742
H           1.27527308133698    0.02830825426217    2.01615778043213
H           2.28081535084308    1.05935307887158    2.59184157055200
O          -1.84897559733033   -0.59950582158852    1.49180062037790
H          -1.18663643636557   -1.03113153405372    2.03983107824776
H          -1.73101302387523   -0.96846549110640    0.60715585862522
O          -0.30251460359844   -0.43387440944572   -3.44007871801584
H          -0.25309119688451    0.52596321726887   -3.44521531500301
H           0.57836012644826   -0.75143016994349   -3.17551417026811
O          -0.65596464458747    1.74731633728792    1.13331261681103
H           0.05208570485653    1.65174280063068    1.80876113593242
H          -0.02517868436560    1.28361519988315   -0.01555482224000
H          -1.29339295204685    1.02050361616168    1.33544021568813
