    19
        -40.91814341
S           0.24765306787901    0.88828810681456    0.33634010989079
O           0.10189411480624    0.13109154963536    1.54541096819576
O           1.17904625858023    0.30418506530012   -0.61556488074013
O          -1.08977572165165    1.12108528675539   -0.31766383302071
O           0.71816244901746    2.32909361894764    0.65191519476506
H           1.69497851183842    2.35725867851398    0.49584252167200
O          -1.85539266594766   -1.62673343203289    1.95099629676745
H          -1.04461851880608   -1.07833907051509    1.93122583218901
H          -2.41359335586629   -1.25523421521206    2.63666395768791
O           3.17916018856053    1.93993993237380   -0.10455708012513
H           3.46150106857724    2.41880209928084   -0.88773106045337
H           2.73210735195898    1.12853798292085   -0.41103116158897
O           0.02337396284970   -1.87994711806817   -1.64766005024673
H           0.17916790464757   -1.85724041202013   -2.59378375771560
H           0.55446553227761   -1.15617186779907   -1.26025372536679
O          -2.23543078924259   -1.03252450441924   -0.57548063185663
H          -1.67735300946489    0.17252650978376   -0.45231769187784
H          -1.51582324914626   -1.52708425955085   -1.03917663425656
H          -2.23952309118522   -1.37753394777037    0.35682563626668
