    19
        -40.91410306
S          -0.12292109692130    1.31564468908284   -0.78614217361306
O          -1.39828019012936    1.45224478755665   -1.40222828400676
O           0.48962617441835   -0.04696717072922   -1.27663753674522
O           0.85830921050825    2.33870997818669   -0.96659865771830
O          -0.30836843057513    1.06810697081278    0.72982192799892
H          -1.27293976501671    0.65228988321700    0.81361966560666
O           0.57406917831224   -1.39373194171808    1.78888685930741
H           0.37390372454776   -1.46649686522409    2.72397741933028
H           0.51472046243802   -0.45541892808212    1.56158551146693
O          -2.54987011716849   -0.00286158359694    0.59138706446121
H          -2.76672023332795    0.45882104892988   -0.23040189349907
H          -2.23234854342651   -0.90798205744259    0.32513087099979
O          -1.18140073530233   -2.10770660010888   -0.18447370217016
H          -0.53633595156692   -2.11508267888641    0.54748636513257
H          -0.70701278242194   -1.72622558966973   -0.93116029747193
O           2.86283119738807    0.68486155535816   -0.53867024813365
H           3.57103551734009    0.73788621088696   -1.18498308187673
H           2.38567991471167    1.53627983472743   -0.56845318491699
H           1.44602247626611   -0.02237155329946   -1.01214661427142
