    19
        -40.91410360
S          -1.26062275674227    0.78006290909776   -0.40437231920601
O          -1.00433217430020    2.17230189351073   -0.54904731549173
O          -0.80296979347124    0.36846188100884    1.04242117472972
O          -2.58404080372717    0.28343765527110   -0.61390942974541
O          -0.28355821738259   -0.01779919738236   -1.30006123086556
H           0.54412768962869    0.62297001767761   -1.42459949130048
O           1.56051339129519    1.65194836288830   -1.30161159223240
H           0.95133121335208    2.38721628660577   -1.14704675684994
H           1.93757363310074    1.41272995596828   -0.41186281634869
O           2.04728165951504    0.69430589810351    1.09637514876610
H           2.06680812080094   -0.25035193132041    0.85349028854693
H           1.18452465332456    0.82941235559225    1.50314469108447
O           1.55403057692014   -1.74626476899648   -0.03797493249489
H           0.79680880960796   -1.40841699895888   -0.53615188611479
H           2.13748242365407   -2.16854145762447   -0.67115571641991
O          -2.19191952972649   -1.81561654058794    0.92721474968779
H          -1.18067948674985   -0.53639790143041    1.19684849813712
H          -2.88732725895085   -1.97507959504108    1.56991874411357
H          -2.58503213990200   -1.28437882404826    0.20838020202543
