    19
        -40.91779603
S           0.50784764907957    0.63886314150378    0.93543694574673
O           0.87386498081548    1.37516926244428   -0.24268095101847
O          -0.89694895544890    0.05375734488771    0.74233305492409
O           1.42549608419075   -0.39340527772113    1.31851376503931
O           0.31654870153514    1.59928419769490    2.13100735831374
H          -0.44276652819330    2.16950266079862    1.86749245567752
O           1.47438776144546   -2.57700446314797   -0.17934796052182
H           1.61197544672786   -1.78797271149791    0.38745260295064
H           1.52753807424702   -3.33657268350923    0.40389218153059
O           0.41266185552665    0.21772188430021   -2.58432016605011
H           0.58630943728554    0.79068801820431   -1.80741626246535
H           1.27339712717626   -0.02305324757389   -2.93315933108776
O          -1.94826724982149    2.50459045815487    1.19419730500118
H          -1.93077771510113    1.63097280598005    0.77410896881536
H          -2.68900444890424    2.51006681543534    1.80586652124252
O          -0.77200275704830   -1.56804494288033   -1.08771176278073
H           0.01595752879540   -2.11216086116208   -0.82405141816228
H          -0.90228390768715   -0.72198324113938   -0.08729583669995
H          -0.44393308485767   -0.97041914304501   -1.81431748208675
