    19
        -40.91793091
S          -1.63794016636631    0.22956972187984    0.59480467712046
O          -1.20080328974943    1.01179714635213   -0.57308447723896
O          -2.53299872160309   -0.84117589489676    0.22109055708552
O          -0.50520135955648   -0.20678176115716    1.38494636536383
O          -2.45284901238708    1.23726416271143    1.50076107999254
H          -3.25795785868392    1.39677620831838    1.01565631803407
O           2.53157165164301    0.39437399854358   -0.99464289783191
H           2.83224190384182    1.16729701941433   -1.47681885384662
H           2.26719108802200    0.71833009262043   -0.09031209372415
O           1.66657657648554    1.24267522710394    1.32248398723621
H           2.12827619050039    1.01248729694399    2.13100317709760
H           0.79567463799530    0.78097890104988    1.37017280892989
O          -0.46758105471597   -2.33764719848310   -0.37861750842889
H          -0.03278938383299   -2.15509047777138    0.46276009972232
H          -1.38417233166467   -2.00744815557957   -0.24005298157738
O           0.30057455468740   -0.43673721560392   -1.87651049838299
H           0.07215216719042   -1.31743541336393   -1.39156151631561
H          -0.36892814587044    0.25706306203646   -1.40815607085697
H           1.24696256406660   -0.14629673011289   -1.57392218237526
