    19
        -40.92182552
S           1.04315891296454   -0.15337304683471   -0.52404414061903
O           0.97984389468856   -0.79703168667087    0.76110561178805
O           2.11692267803211   -0.50864029778973   -1.39067076797326
O          -0.27342486952296   -0.32600913679372   -1.27030717207683
O           1.09281894243942    1.38820273734957   -0.23305837356357
H           1.21685322348591    1.78430599714369   -1.12939827294308
O          -0.54836515556692    1.00974773734184    2.07037808121292
H           0.13316701859551    0.36978149389891    1.80001816470990
H          -0.20999374827838    1.87031526484099    1.81364063283489
O          -1.06833571407614   -2.44387723468589    1.51549469437983
H          -1.06362677534942   -2.51478201137027    2.47241701674982
H          -0.21539436195661   -2.04989355179659    1.26510257722729
O           1.38223325610316    1.63754591262575   -2.80456563003511
H           0.56899324806751    1.36562265349592   -3.23860203757305
H           1.89917410548569    0.82645459076592   -2.66292450509263
O          -2.13266040622858   -0.28798847186858    0.36621186112151
H          -1.13172207365777   -0.30281526224249   -0.61282104351685
H          -2.02052577622067   -1.18738873130270    0.75028025070202
H          -1.76911639901304    0.31982304393144    1.05174305259231
