    19
        -40.91285532
S           0.85346338203636    1.45800069302195    0.27433015679813
O           1.34669911718141    1.12629106393920    1.58170616420018
O           1.53706487975209    0.73433103565976   -0.80480618854871
O          -0.59391288103430    1.35697454952154    0.11873593720810
O           1.17602863022791    2.99460817734693    0.03937046712796
H           2.04493087414189    3.13001795767867    0.40688541262123
O           0.87931664702817   -1.43710025700847    2.18178703568199
H           1.16152307103042   -0.52440769372868    1.97138170833267
H           0.89136110489001   -1.50514626003498    3.13840454146596
O          -1.19817643200072   -1.89248082802576   -1.65281264395975
H          -2.07248086432066   -2.14317930368554   -1.95744965479106
H          -1.27374094601480   -1.73540028260377   -0.65824756089705
O          -1.40439122576215   -1.15724845286463    0.80703882579775
H          -1.28225134249237   -0.19719944192293    0.71489541900534
H          -0.63500739157443   -1.45368562442683    1.33781918115061
O          -0.42678119063760    0.42818515253842   -2.19972052569408
H          -0.83909743440185    0.91649966986307   -1.41968322213608
H           0.56707129537706    0.47980690124470   -1.79473458603276
H          -0.73161930323456   -0.57886705631552   -2.08490047658464
