    19
        -40.91410379
S          -1.13591383147606    0.80445976271946    0.65026705637095
O          -0.82720628662182    0.63534837003077   -0.88210634136183
O          -0.71922264600895    2.11280157296900    1.02385934370143
O          -2.48810545500885    0.40452962766909    0.88178447339923
O          -0.19269310636182   -0.23858107125415    1.29509568743333
H           0.70701577498657    0.28526611624220    1.46136789040275
O           1.35044615192431   -1.86027819584244   -0.42158449326104
H           1.92187279387914   -2.45628830359588    0.06603473180591
H           0.67262968229306   -1.55301357255636    0.19639242394593
O           2.03115343511706    0.69442654102710   -1.12650409790871
H           1.16218838582204    0.98565782437959   -1.42348134533285
H           1.96411239675920   -0.27678198060827   -1.06366709634502
O           1.81862309624309    1.21795025362781    1.43965173161614
H           1.28413103710742    2.02330426719755    1.47642930313835
H           2.10527456943120    1.11841407887391    0.49156048597645
O          -2.43643994074233   -1.38873435086882   -1.04613173161637
H          -1.31187993329209   -0.18312035849075   -1.16558505392648
H          -2.71808982276363   -0.96977488548978   -0.21031803842938
H          -3.18789630135910   -1.35558570594503   -1.64306491965675
