    19
        -40.92217282
S          -1.18340581513684   -0.44562299663440   -0.55480372817761
O          -1.48466286292824   -1.75299575920083   -1.06319093835815
O          -0.85395815990925   -0.37781309309658    0.85800350949627
O          -0.18673836896935    0.27183229438032   -1.36011191154566
O          -2.52021487482681    0.42217157920984   -0.69231640932928
H          -3.02332519253401   -0.01580059790103   -1.37245465971132
O          -0.62672322163515    2.18266114720110    1.33278226624450
H          -1.30961042320527    2.63706244809839    0.83559369042221
H          -0.86740965393155    1.22773910797720    1.31627718756584
O           1.16725385647362   -2.16582670075932   -0.86803221917824
H           0.19587931503871   -2.21391930882315   -0.91249089617387
H           1.44203714749019   -1.77427839022289   -1.70057404608439
O           1.76609370389618   -0.73312915462249    1.30649858063433
H           0.83091056804360   -0.75475112039685    1.57624769965019
H           1.79957993487875   -1.38665546201273    0.57331635993548
O           1.46916915529903    1.41915730512413    0.07507744798572
H           1.75248611365272    0.56141393007950    0.64753940838252
H           0.83522027822894    0.98037381582823   -0.64654772309153
H           0.79741849007753    1.91838094574990    0.64918639131382
