    19
        -40.91410334
S          -0.50991719402731    1.39912842716808    0.38094102929854
O           0.24550898936880    1.97269250923094    1.44169120735495
O          -1.04262835749737    0.00827291344542    0.88489522148816
O          -1.60870920487974    2.12586331483200   -0.17266307955914
O           0.44396653164347    0.99166726641733   -0.76709091576300
H           1.37713568120529    0.85151498126487   -0.29846227079461
O           2.46483336400074    0.61546889808361    0.63491110287031
H           2.21671736025502   -0.29266694817482    0.95835731576157
H           2.16165394049426    1.23490417140920    1.31306678481342
O           0.63737594507911   -1.74624518678997   -1.41987134222223
H           0.41652741351043   -0.80485385782220   -1.44534934870999
H           1.28078759469457   -1.89982968544413   -2.11424052679092
O           1.27347010223907   -1.64739563141314    1.23976087297827
H           0.43365315137098   -1.30602298142748    1.56581539189574
H           1.08981429280628   -1.94119565512540    0.32779814658435
O          -2.82153234169708   -0.06165851749696   -0.99726439629242
H          -2.57485765365151    0.88306431134643   -0.98339790464858
H          -1.72958571220366   -0.27166548310215    0.22538123758797
H          -3.75421392274953   -0.11104285634548   -0.77427851583886
