    19
        -40.91080950
S           0.20274044440844    1.30189775277783    0.93095769312753
O           0.52108319440320    1.91592735280843   -0.41449571112494
O          -1.21914377317739    1.19038093956996    1.10557796037462
O           0.96224708717638    0.10739416938417    1.14188960541379
O           0.72390785136529    2.38689424674523    1.93345384449631
H           0.06510466318030    3.07719163605407    1.93801416901257
O          -1.95228168646195   -0.66521345175516   -0.63196624273420
H          -1.80618340617962   -0.01153605924005    0.08418829138201
H          -2.89607688783299   -0.68315924839936   -0.80258640286930
O           1.97056432867543   -1.28932903541373   -0.96001177318871
H           1.69434544045173   -0.95850900565509   -0.08705912693127
H           2.92309241531475   -1.19257142263749   -1.00448536030917
O          -0.62721180593783   -2.25490524927232    1.46423746147610
H          -0.00669143794982   -1.52636523438180    1.57136734369180
H          -1.12587814773119   -2.05712152713367    0.66521681693914
O           0.10744488172633    0.17359025641332   -2.09052570237649
H           0.34352670640582    1.18229367903639   -1.23540367206045
H           0.83543331175596   -0.46178964034571   -1.87114569747259
H          -0.71602317961046   -0.23507015857856   -1.73722352687784
