    19
        -40.92174069
S          -0.33001247488498   -0.09470948434084   -0.82727591581275
O          -0.16190813727161   -1.51470793132867   -0.60136240992988
O          -1.21502785656909    0.50482372905877    0.24994974041562
O           0.89560407099193    0.64023616467869   -0.93984918906671
O          -1.15180696507002    0.10508504157318   -2.11923950064096
H          -1.83669612052230   -0.61261914887331   -2.11713462476402
O           1.57843276335413    2.58474356439053    0.79097196540018
H           1.45943773475687    1.94345887324213    0.06476690509429
H           1.24418504861817    3.42392224661324    0.47013008602102
O           1.69487133313195   -1.08114880305621    1.32028701112008
H           2.36905706549147   -0.63059418031221    0.80487988320592
H           1.07807359120603   -1.46212960000795    0.67371480763591
O          -2.47126984507913   -2.10109103299920   -1.75624898487471
H          -2.39801368991817   -2.77774438071027   -2.43418644793702
H          -1.71006183777444   -2.21565215430200   -1.15768899482694
O           0.16830321342275    0.87710135802609    2.26268771314009
H           0.70948583219261    1.63947085461160    1.95225397963624
H          -0.68441946767174    0.67787643332844    1.18387474484173
H           0.76176574242397    0.09367845466486    2.17946925557474
