    19
        -40.92343605
S          -1.25772454861047    0.95679304324037   -0.58978680128184
O          -0.47062139933437    0.84590616971481   -1.79940318494464
O          -2.07199768874644   -0.23691881792894   -0.35669843925595
O          -0.45112361346900    1.29254891423359    0.57295390190606
O          -2.26736835833529    2.15013670859675   -0.78583899815096
H          -2.76296036729787    1.88184581602028   -1.55322214082896
O           2.13001013756979    0.70303526620866    0.38179045510035
H           1.21562829938486    1.06084403052618    0.42342505282614
H           2.67672358846097    1.40460421281334    0.02552000385674
O           0.31453226928813   -0.62828311027883    2.26016473447690
H          -0.10576345222302    0.16873427647835    1.87511041620284
H           1.26247405876580   -0.47347365220172    2.18299838057874
O           1.15770770468627   -1.14298650250377   -1.31018768596857
H           1.76385221931600   -0.62488269372427   -0.74029395199747
H           0.57646346059680   -0.45756094387258   -1.71778157043575
O          -0.50619174611175   -2.04491513810724    0.31122869222752
H           0.24871657111202   -1.81338050904192   -0.40915517180910
H          -0.17232266091046   -1.64354373431804    1.19642192648391
H          -1.28003446416070   -1.39850334586835    0.03275437099502
