    19
        -40.91084171
S           1.12333678729657    0.66561596779911    0.22944268945490
O           0.16071423527648    1.67336949020647   -0.09625886121398
O           0.84307500639945   -0.55507454862258   -0.70091719877976
O           2.50445458277563    1.01427749055189    0.14233082290752
O           0.85289469889874    0.12410132784932    1.64358029333358
H          -0.12318545577278   -0.11112340423060    1.75635390356324
O          -1.65670826386791   -0.35358783782155    1.88655103111131
H          -2.08616836625320    0.07590445669340    1.11806765724573
H          -2.01395075971219    0.06056314867054    2.67547937843715
O          -2.41451724080681    1.12451447926248   -0.22577429235025
H          -1.47545584907568    1.40576793271216   -0.28506504252597
H          -2.94633565275427    1.89185821147410   -0.44400759579896
O          -1.75544695215501   -1.01536547283701   -2.04388442494312
H          -0.84422315817888   -1.01399083211758   -1.73811614664318
H          -2.21019427843928   -0.35762432910680   -1.50478560278805
O           3.24344343958464   -1.45358670487451   -0.43416659676233
H           3.35008709146560   -0.54862085085655   -0.08552992110216
H           1.66707874601621   -1.11248526112590   -0.66530857049286
H           3.78110135931097   -1.51451326364715   -1.22799153262966
