    19
        -40.91089022
S          -0.03336447519604    0.83137665753428   -0.64603729925841
O          -0.37745270434673    1.64335756685720    0.48428988653977
O          -0.21469747489168   -0.65172305240827   -0.21132463255684
O          -0.74878642020999    1.05249904722917   -1.85969485269794
O           1.47386443636342    0.95516274116641   -0.93917902184124
H           2.00736136154233    0.78570385836508   -0.09943898565327
O           0.68083430058011    1.09009813135232    2.84045613820980
H           0.56813921196044    1.86605889149916    3.39314253360335
H           0.15523800871581    1.25673158413623    2.02913442571664
O           2.76378127344649    0.62341993349346    1.25847623500776
H           2.06467116785012    0.68959753532449    1.95172391509797
H           3.36481535565881    1.35904858468114    1.39682914991891
O          -2.81032882577865   -2.01082971416901   -0.67915568705500
H          -2.93850137997561   -2.85105683854225   -0.23413401309096
H          -2.27090898357164   -1.46442311678097   -0.09758244420855
O          -0.80089971308388   -1.55329863081434   -2.50636773959197
H          -0.88558902790952   -0.61885381857034   -2.75789247617449
H          -0.30900435796938   -1.15928476890322   -1.08650117910495
H          -1.68917175313002   -1.84358460134085   -2.23674396294152
