    19
        -40.91463207
S          -0.88548046464358    1.07216155458051    1.07192768588468
O          -0.55144088763750    0.81384927140861    2.43564994079208
O           0.37861069451395    1.44419401199249    0.30150549236968
O          -1.61962431738088    0.08536583442616    0.34603123691053
O          -1.74360170353315    2.39806383265164    1.03800229262051
H          -1.49513575728664    2.93016540341429    1.79123366781995
O           1.49392319033331   -0.82159662186701    1.70640912723212
H           0.81591241445594   -0.35841951942478    2.22086396646074
H           2.02230170254619   -0.13482944152465    1.29342989303479
O          -0.08549890587527   -2.19843173302724   -0.05359666865366
H          -0.84240485174418   -1.61346704824243    0.08983383292607
H           0.56584341262310   -1.93996752931151    0.62328111926243
O           0.88785273189841   -1.33819356804683   -2.34691318859972
H           0.51606459150390   -1.79588151397510   -1.54860873579339
H           1.84107605189635   -1.41064825920703   -2.28284672379467
O          -0.36594875395539    0.90934894983106   -1.98718375407428
H           0.15590616080592    0.09488421832675   -2.25219167751343
H          -1.23068137602915    0.57724155675088   -1.71342302118695
H           0.14232607752895    1.28616062124815   -0.73340449585996
