    19
        -40.92161571
S           0.09091618193100   -1.05877760066037    0.08178071089683
O          -0.30022643227889   -1.00611824994573    1.47152355806577
O          -0.95830878067975   -0.32221383168997   -0.75083776233531
O           1.40564128424999   -0.56477925323436   -0.19582921159281
O          -0.02912227029113   -2.50912089983638   -0.43021098507692
H          -0.93583102993889   -2.79148254799826   -0.14821928673704
O           1.86636261509690    1.53811040572553   -1.82261569342532
H           1.80977738267498    0.69520035647893   -1.33627180715054
H           2.79258572751698    1.78347510105198   -1.84627115767963
O          -2.39414732700944   -2.49172066064790    0.64725614321187
H          -2.90274501661717   -1.86132955515988    0.12925879634075
H          -1.91251364878852   -1.97671688825899    1.31452985807964
O           0.66818799205854    1.50505804290996    1.72152883888638
H           0.25572201163563    0.63945751303578    1.88046383712083
H           1.59456767770654    1.31702054504140    1.55100120501159
O          -0.45719354976351    2.09797273535906   -0.62047399602029
H           0.32890463402006    2.14483860936243   -1.20294256769176
H          -0.81496128995246    0.74999151595303   -0.74538040683727
H          -0.10761616145726    2.11113465263657    0.30170992707305
