    19
        -40.91889820
S          -1.18030501370109    0.09969475020644    0.91580795296644
O          -0.78127337939806    1.04093280447618   -0.15252647893839
O          -2.19048118955593   -0.82245555235548    0.43968580073201
O          -0.02563156912567   -0.52183725170893    1.50772592541270
O          -1.87482503756925    0.98820606108420    2.02297983094900
H          -2.78105074707141    1.02832804493619    1.73254303770784
O           2.26743585392021   -0.30782265575814    0.27948119462096
H           1.55853256141441   -0.54362837762433    0.92669663792525
H           2.34765924201492    0.66571150955137    0.37847396973898
O          -0.82082325795847   -2.38249349567069   -1.12705950728191
H          -1.37774931915716   -1.90378307806628   -0.46263184815574
H          -1.42560025397902   -2.73540682037360   -1.78326850708470
O           1.55383324253483    2.25529941611948    0.38112799834482
H           0.63616025647815    1.93072082458988    0.28741276542072
H           1.63180546224714    3.02414998641811   -0.18563929364641
O           0.69258116786368   -0.39140837016837   -1.61188377053128
H           0.05669857009661    0.27579432309476   -1.16374312541786
H           1.52018457758007   -0.42321118341779   -0.85088682113055
H           0.19284883242670   -1.27679093570885   -1.53429576096493
