    19
        -40.91107192
S           0.85468267505471    0.33600183818449   -0.04574471593894
O           0.40519099552754   -0.18128701039083    1.22553350430183
O          -0.31675444137818    0.27311087280390   -1.05079190155019
O           1.41207334499783    1.64645364478422   -0.01235861000767
O           1.86366723325000   -0.65061794795281   -0.66401902347906
H           1.53648043876998   -1.56338025774549   -0.48080275690078
O          -0.38771901073548    2.41889225676361    1.85704118166152
H           0.43091871389951    2.50692411762314    1.34497927677109
H          -0.34763503740318    1.52766991113738    2.22298822479589
O          -0.50725947491423   -2.41871884063707   -2.19673493587627
H          -0.57138999908300   -1.47090480033568   -2.04800566206493
H          -0.29967351493359   -2.81467237363656   -1.34527842226472
O           0.64435588349978   -2.68874739597433    0.46376146609824
H           1.11279553300317   -3.27667624590935    1.06096329102665
H           0.35555613639089   -1.91392272202724    0.98428875596068
O          -1.88906685117993    2.10050315015583   -0.28214084160860
H          -1.02421749047168    0.97318008042918   -0.80519758022947
H          -1.47847473566866    2.30967980990328    0.59733416911767
H          -1.79353038847115    2.88651190286970   -0.82581541985909
