    19
        -40.91774913
S          -0.72077937684684   -0.05863634618179    0.69908895114497
O          -0.26864375294315    1.29841926293421    0.58080559529320
O          -0.17007811457827   -0.87888196520429   -0.50771928993358
O          -0.38623390180008   -0.71496003307188    1.92550783860862
O          -2.22628778268932   -0.15534639307691    0.45876876003792
H          -2.37539439171429    0.08140585209506   -0.52347310842827
O          -0.65887326295551    2.43751526497458   -1.76649155856085
H          -0.37353166726469    2.09383707395053   -0.89200795025278
H          -0.97130958060555    3.33104388647917   -1.61241015187884
O           2.20408567557827   -0.93932779578182    2.49142534641142
H           1.24460264680556   -0.76007183633381    2.42285687775927
H           2.30534247121809   -1.58929940127140    3.18962430538663
O          -2.30412168989116    0.39770277068096   -2.01562634461074
H          -1.74513254793895   -0.30187695766409   -2.36509260327167
H          -1.75857754303352    1.22425855087357   -2.05823870614750
O           2.34325573974193   -1.24543954100555   -0.14362505839343
H           2.58218791679513   -2.16505645266494   -0.28196029447996
H           0.82853791910122   -0.98846654614681   -0.42106846081500
H           2.45095125295587   -1.06681938363114    0.81963585213517
