    19
        -40.92136400
S           0.89279984907134    0.95915287457429    0.45471343625876
O          -0.53688324839971    1.12743524169081    0.32329664676433
O           1.36838088304024    0.96350425848979    1.81595201616379
O           1.35230473782737   -0.22391920027440   -0.29433456819849
O           1.56528581079069    2.19676720667743   -0.27814393148833
H           2.39231583793108    2.31802466113355    0.17976963753124
O           0.09366813651425    0.17875058854092   -2.63106833266688
H           0.69753129169821    0.01989655137158   -1.88121750041957
H           0.12011084046947    1.12244393555159   -2.79781803516190
O          -0.52970448212475   -0.73382878839932    2.49281588490809
H           0.24744433147994   -0.13486587622401    2.41550694303186
H          -1.29728457211707   -0.15556719616581    2.47019208837755
O          -1.89626314551756   -0.63710868369832   -1.05736347407083
H          -1.38922469532542   -0.50404412452465   -1.88855762132215
H          -1.65516804541594    0.15917655649534   -0.53101144901934
O          -0.32229592968069   -1.99932351496722    0.28689146664423
H          -0.48244138361115   -1.66801490736353    1.24264049941928
H          -1.11048263653012   -1.54996058817796   -0.32491174087954
H           0.48990643293831   -1.43851900519963    0.00264802532901
