    19
        -40.91335398
S          -0.37558447956310   -1.49090328356194   -1.11628893760223
O          -1.10509785390631   -1.76729906783548    0.08434284235468
O          -0.62155276023829   -0.24150900029706   -1.75243788418562
O           1.13075348473184   -1.69560184272955   -0.87004055651144
O          -0.66452216307210   -2.64152296688666   -2.13846118182743
H          -0.69835454644015   -3.44655299024435   -1.62650160858589
O          -0.50026659111967   -0.04560359878324    2.12485114516882
H           0.44508083210134    0.01758889973676    1.94720180461925
H          -0.83912174241793   -0.73031529560302    1.52587033331373
O           0.56002023326599    1.99933908204297   -0.73756122420752
H          -0.14533947564596    2.28011905901423   -0.10743840446727
H           0.11618689062332    1.39066728691912   -1.34896962777937
O          -1.44246969629035    2.20954985836591    1.00687705523666
H          -1.15715667511065    1.45107421720143    1.56377333543255
H          -2.27946169373860    1.95269589100959    0.61670461647300
O           1.87722012315569    0.24731733263371    0.55083601153587
H           1.48097293781621   -0.93540944159680   -0.27483355606178
H           2.81751523914618    0.42646695824922    0.48160883401106
H           1.40117790677571    1.01989891232957    0.07046700313978
