    19
        -40.91463217
S          -0.27190187951615   -1.62283391191947   -0.61357770219463
O          -0.58779320906473   -1.59271082886068   -2.00549000098494
O           1.09709985797332   -0.98558395263665   -0.38964747032176
O          -1.21275500395431   -1.08373158737568    0.31577121569538
O          -0.04662180305227   -3.13397514310460   -0.21202739563131
H           0.25371908161420   -3.60409202585671   -0.98727119577114
O           0.47642214573317    2.16755941073301    1.77591707982982
H           1.09799848066304    2.75284889724504    1.34113089461760
H          -0.31207817116024    2.09887739451357    1.17702438232622
O           0.06437298782728    1.04093170282844   -2.17177788826832
H          -0.28073803740709    0.15736405598582   -2.36956558896182
H           0.99766339414549    0.91988557747888   -1.98288300484909
O          -1.43408768019790    1.67275703559750    0.02920284212138
H          -1.65211184580723    0.74743417449875    0.20790057288998
H          -0.99739355994200    1.66578460123826   -0.84163624682293
O           0.88461025443623   -0.38951845029222    1.99329040057038
H           1.12619758068023   -0.72377411713114    0.65068827335486
H           0.82454001805410    0.61149845304963    2.01177674951465
H          -0.02714259109200   -0.69872125601218    2.07117409285094
