    19
        -40.91958886
S           1.03805298682776   -0.59354420225497    0.29281692538497
O           0.97212090918759   -2.02113140309253    0.26071806710202
O          -0.07693956595038   -0.09189988788626    1.24899185602866
O           2.27190375085021    0.03561069744650    0.61916076530772
O           0.58045579316170   -0.03685886079178   -1.09072236618050
H          -0.28608096245589   -0.50829704657629   -1.36709087634042
O          -1.61851249558006   -2.43768132950242    0.67545638251597
H          -1.79255775485354   -1.81352325984116    1.38469272551305
H          -0.64455855979787   -2.51113147193920    0.62810604608925
O          -1.56696815571904   -1.25804638471807   -1.65964814129900
H          -1.39234363659506   -1.95359556253077   -2.29836258256693
H          -1.75325938774930   -1.71905732144704   -0.79602661941887
O           0.39458653907558    2.72661558964911   -0.92521253408721
H          -0.46149726847658    2.93913754843483   -1.30185888695094
H           0.59180634335409    1.81009680490339   -1.17234050233335
O           0.95174987876075    2.17384293532730    1.64901250411860
H           0.21312093218138    0.85212476616950    1.52167245151946
H           1.82851414308751    1.78143664141206    1.52726558135367
H           0.75040652071144    2.62590175722708    0.80336918417834
