    19
        -40.91930959
S           0.09935653188861   -1.01890682475994    0.09612927580850
O          -0.23175144431447   -0.44050886150493   -1.18189444496763
O          -1.18465596683990   -0.92055558108981    0.96619729143717
O           0.56378873391737   -2.37096619159144    0.08334023571738
O           1.12917427015225   -0.15077815722871    0.80093890676188
H           0.95532867232774    0.89106834708747    0.66427146097826
O           0.68720543326135    2.24693724312128    0.29763279128629
H           1.09348105737865    2.26550231396148   -0.59397309990784
H          -0.28223307363767    2.25560540481894    0.12563649886057
O          -1.74238405522059    1.76216330412879   -0.68854370044044
H          -1.42062276041321    0.86281303240396   -0.87171943070641
H          -1.89608283324619    2.17402793040064   -1.54198432103769
O           1.36164025848285    1.51442342314003   -2.19807178516355
H           2.20323825986875    1.14463277742051   -2.46887577978741
H           0.77390475973038    0.76010843846247   -2.01153065228570
O          -0.37499640028587   -2.84761802541068    2.50849789533079
H           0.21319552087613   -2.94134671806080    1.73590826436079
H          -1.04253833341110   -1.53926962800973    1.72454319503429
H          -0.90504861056263   -3.64733224731508    2.55349740868044
