    19
        -40.92079078
S          -0.02272711937643    0.72651742592693   -1.29532101709141
O          -0.56758273111006   -0.13618838048821   -2.31181500564262
O          -1.03487368346380    1.17500878456199   -0.33724590749599
O           1.14184945203708    0.18315588221731   -0.61003993398220
O           0.49937458863599    2.03236824623997   -2.02138317794204
H          -0.23349629926600    2.28342570770387   -2.57487964200662
O           0.18275346463065   -1.72290668433962    0.98822863038346
H           0.74946918871828   -1.23219120854169    0.35904304392760
H          -0.56867235420633   -2.03655592732718    0.43224149330525
O          -1.65001006139541   -2.07202573713673   -0.87400002419195
H          -1.75527735305377   -2.83672572107850   -1.44322332353565
H          -1.34186007811129   -1.34133197711677   -1.45269561931402
O           1.78850137025346    1.38116241013945    1.63194835401521
H           1.68519469580283    1.05946648121027    0.70532233174010
H           2.57454445962595    0.95752132344707    1.98269380622763
O          -0.56550736428339    0.43843460545278    1.97879960472638
H          -0.32146103876080   -0.56541148457139    1.71399694511783
H           0.33646365131590    0.89347695022461    2.07754057575651
H          -0.89668278799477    0.81279928351537    1.05078885600479
