    19
        -40.92135385
S          -0.70521236343067    0.21964283496268    1.37542871576899
O          -0.67844679801209    1.61364526081304    0.93083262458676
O          -1.78388471875971   -0.52448225773035    0.76300107647735
O           0.59347277782078   -0.41529226230128    1.21531612343071
O          -0.98379027076478    0.25334057321686    2.92838563043925
H          -1.88160059118481    0.56705821785970    2.97585367830007
O          -1.10210114333945   -0.56735250392172   -1.76647732258432
H          -1.58568939326947   -0.56660747440033   -0.90682430538407
H          -0.43603225981242   -1.28560581351328   -1.64560305268887
O           2.29049865062842    0.81042329811811   -0.40275944493119
H           1.79165363662262    0.28353475868815    0.26217096556159
H           2.79788388310623    1.45972642088859    0.08772873885640
O           0.53984030308787   -2.32824790617237   -0.67592298598198
H           0.08033757407554   -3.10082341592634   -0.34233072397175
H           0.64835133655854   -1.72553940847211    0.08537526502398
O           0.08753610853702    1.57789148540093   -1.43799047873138
H          -0.42547773125281    0.65715386443696   -1.72680362489149
H          -0.29841210036352    1.74783905859248   -0.48838329139293
H           1.05107308962929    1.32369527967426   -1.23099756789524
