    19
        -40.92117421
S           0.33794836674103   -0.86883123219265    0.45622450335499
O           1.47588531451408    0.19593390005795    0.64200520313244
O           0.09474787019015   -0.93609514194442   -0.96190639827715
O           0.73367644704898   -2.07749058370274    1.10538820669848
O          -0.85819128091827   -0.27351271240724    1.16932375736760
H          -1.33320763497538    0.50635956783280    0.60486907019220
O           0.45822271370853    1.67209891473246   -1.56584172569693
H           1.20960354049855    1.94625957934306   -1.03550207394673
H           0.46023953236003    0.69910783059641   -1.53795033080236
O          -2.33590356590522   -0.43026971616768   -2.10668435193474
H          -1.50779027422510   -0.81964901897030   -1.77786242540569
H          -2.18778109810668   -0.22106240020108   -3.03138997373154
O          -1.87274756715678    1.46587996005885   -0.28252243617584
H          -1.08038672938322    1.79955039187356   -0.76242090357513
H          -2.32572543104640    0.87990015774133   -0.92943634718228
O           2.19135262335547   -0.82841799255752    2.91415839959603
H           3.07172755967571   -1.20201470504001    3.00402443427031
H           1.84611533678634    0.02529050846693    1.54493645653224
H           1.62221427680072   -1.53303731753438    2.55058694562129
