    19
        -40.91398624
S           0.05878631758323    1.58673434864202   -0.47658847613891
O          -0.97045735382016    0.72554910869831   -1.06988745467699
O          -0.38955240218194    2.35169236752404    0.64438017155138
O           1.27451722866735    0.79590771171829   -0.23535389818675
O           0.47385768314625    2.61352227769961   -1.61494996938421
H          -0.02212512603901    3.41032902234360   -1.44804040551313
O          -1.51118332269769   -0.99234341918701    0.99055696758226
H          -1.60566843732786   -0.32946170078512    0.28738645717400
H          -0.91544924766441   -0.58528542980515    1.65613683702029
O           0.43181030183943    0.31733368650980    2.30635579312004
H           1.00108600101838    0.43402103858539    1.53041141483466
H           0.02778363765236    1.18362117569560    2.42852401798832
O           0.03213143201313   -2.74409052222076   -0.08321516543375
H           0.71723175598478   -2.90492332819345    0.56989131360700
H          -0.67420225069206   -2.18327984530713    0.37582672591693
O           0.64911926326965   -1.02012792094120   -1.77457864761297
H           0.42981905135581   -1.84958170383004   -1.12573723437063
H          -0.20173477792962   -0.45405240278488   -1.76664435386683
H           1.19423025585862   -0.35556444434836   -1.19447409356188
