    19
        -40.90657672
S           2.26661304527965   -0.22779082058249   -0.10862325443130
O           3.50398993532191    0.46157588755594   -0.12179478540510
O           1.21535549197110    0.55258367091991   -0.92985705271976
O           2.18842510527831   -1.60556809798870   -0.45660990470227
O           1.66938503086999   -0.10668100233484    1.37265124805421
H           1.97518865266703    0.72690016826580    1.72455689939207
O          -1.53068636556147    1.37614528290542   -1.48624826574158
H          -0.62338605198207    1.66392195992543   -1.62445840556132
H          -1.55678357807046    0.44421118327753   -1.73089906707096
O          -0.97042632269699   -1.22770577778503    1.31573547679150
H          -1.33503157931258   -0.31913751331426    1.40097094109906
H          -0.07211060455577   -1.17550208648804    1.65825762173704
O          -1.80524396978624    1.32230219440195    1.20952560891554
H          -1.74398878655411    1.44300692653669    0.23784818176417
H          -2.70346120086240    1.55125409069874    1.45334845951317
O          -0.43969618509216   -1.32052998558756   -1.22378850781518
H           0.23339518294684   -2.00733337065537   -1.30452081072210
H          -0.76696329340915   -1.38754908427955   -0.27654649523769
H           0.49542547363536   -0.16410364552351   -1.10954790775957
