    19
        -40.91338139
S          -1.88461850025234   -0.22661662833958    0.55527053449013
O          -1.78418100728497    0.27636477706402    1.88957143137789
O          -2.06026038434806    0.89565614271352   -0.44510925900061
O          -0.82263678978432   -1.11028717221930    0.15011985201170
O          -3.23216964372261   -1.02195337714644    0.41794028941485
H          -3.90862510440233   -0.49674815901112    0.84045930231733
O           2.96277591079243   -0.72940353117875   -0.17045706068488
H           2.49851957806507   -0.18480649329929    0.48089037385078
H           3.16614860218814   -1.56186638948857    0.25900596323280
O           0.95536692651798    0.51483196310905    1.34429443220255
H           0.40170006287672   -0.21608712948580    1.01435578850422
H           0.49085015708329    0.83786722424825    2.12173941625561
O           0.90660349366971   -0.61986395127628   -1.98214736692954
H           0.26167207171089   -1.07995235363153   -1.42527888824464
H           1.76746305808853   -0.72929229479825   -1.53502228158385
O           0.19793877726228    1.67481813133086   -1.01984840323467
H           0.51191742263492    0.89831521263381   -1.58010323615809
H          -1.08418191483381    1.31655020301260   -0.75098272874354
H           0.65571728377219    1.56247380576098   -0.16469815907265
