    19
        -40.90693149
S          -0.90609249361977   -0.55261117350011   -1.81859755532500
O          -0.96307410405913   -1.09925702745599   -0.44871949812581
O          -1.74018365221944    0.59826807980387   -1.99296537165031
O           0.48908293120732   -0.38267956060729   -2.21778186172413
O          -1.47620563689765   -1.69655681654121   -2.76279297387649
H          -2.40388766051130   -1.50838505323002   -2.88035926461967
O           0.18903403117459    0.74408771568253    3.08856702829427
H          -0.38594196908756    1.02023909038510    2.35995869258067
H          -0.02387864607822    1.29975743944334    3.83934756331046
O           1.91298847797837    0.69802045314978    1.01456911415911
H           1.17143351996106    1.19941193406250    0.62307249161298
H           1.63779463914906    0.57922132506627    1.94229799003641
O          -0.66636506970191    1.37052552719160    0.45953296412224
H          -0.90196125459902    0.44387919121831    0.25608856312060
H          -1.08202855855098    1.86490488685558   -0.25378978218007
O           1.50643803157271   -1.42318523101587   -0.25911302407760
H           1.31683678998917   -1.01810162377947   -1.22207787558428
H           1.80054396280156   -0.58029946748539    0.31724729131046
H           0.52546669149632   -1.55723968922923   -0.04448447139381
