    19
        -40.91907728
S           0.02517362513505    0.48790200536791    1.59422561294052
O           0.90659148082066    1.01960427183700    0.53297467852005
O          -1.06370176365838    1.39149764257671    1.88372502611611
O          -0.38619887501647   -0.86319952581120    1.29011400937042
O           0.93131675328880    0.41771604768136    2.89038618478463
H           0.88611014753303    1.28987339029247    3.27349341609200
O           1.72536811621535   -1.49618086921887   -0.16158160650093
H           2.02894943340404   -0.59472062763988    0.00768365812737
H           0.96056076130737   -1.58267102402779    0.44085717849470
O           0.48091170494309   -1.17923465264137   -2.42993004880906
H           1.12491867645972   -1.14217664610273   -3.13941317465768
H           0.97786510756630   -1.44203809488820   -1.60117088776573
O          -2.43199303972911    0.35454059219662   -0.09811768375924
H          -2.21544206943437   -0.54727977913959    0.17207304543631
H          -2.17670925030363    0.89582534590143    0.68231405709736
O          -0.45800735986795    0.99106806705274   -1.53924229658956
H           0.17700506157752    1.11251772365002   -0.70522603370038
H          -0.12316667939823    0.12164255176325   -2.00181415142590
H          -1.36955184060434    0.76531358140511   -1.09135098372669
