    19
        -40.91520687
S          -0.32527913977962    1.17627038370850    0.26015974690526
O          -1.61712495390158    2.04102128525294    0.26252097753851
O          -0.43177440484401    0.22346839457588   -0.82840421062743
O           0.83313990990777    2.00792792574131    0.22671613434613
O          -0.40417898245677    0.44064746174441    1.59017718235834
H          -0.67502080255721   -0.55390960176198    1.40735624043576
O           2.47363583594329   -0.09306713330667   -0.15853871964444
H           2.04223178221153    0.74955266385836    0.06471395534515
H           2.33807474367341   -0.21247991404294   -1.10098989327279
O          -0.83956105817081   -1.89648529089765    0.84106172430633
H           0.07652492983076   -2.24169960660461    1.00748246289345
H          -0.83680466501848   -1.60056431848478   -0.07958308316496
O           1.73191628244271   -2.30264081988156    1.20441831409925
H           2.03792499354866   -2.19029221164954    2.10604303611920
H           2.07673636110754   -1.53288884417754    0.70316741030573
O          -2.13946067108838    1.66757900268219   -2.26717584579060
H          -1.45348914392393    0.99877958957635   -2.09221604966709
H          -2.94931691607353    1.19566850934618   -2.47697796733058
H          -1.93817412089226    2.12311251433324   -0.66993140518415
