    19
        -40.91520713
S           0.38609692908035    1.18171085727991   -0.10736372220409
O           0.64275339284699    2.21361309756148   -1.24141268464487
O           0.72506706689708   -0.13277827555917   -0.61845356324477
O           1.07358196554885    1.56528210725798    1.08222169022535
O          -1.11848747583930    1.27319388999968    0.10336348347647
H          -1.56729437714871    0.42521640493422   -0.31579642282614
O          -1.87912570544458   -0.93043267776868   -0.77877467379888
H          -0.96490952278584   -1.15678566675464   -0.99823601650126
H          -2.04881319118534   -1.35383261213601    0.10328729980539
O           0.50204247687607   -0.76148721075197    2.31051454634281
H           1.18369098971417   -1.30869473955579    1.91458772378596
H           0.71409532156683    0.15176565903197    2.05128790957615
O          -1.95935071605025   -1.70704627590171    1.73104072338728
H          -1.06515001574706   -1.41247409501043    2.00724468043071
H          -2.57874338115026   -1.22804823536441    2.28430196703164
O           2.39801380880807    0.74135707117815   -2.49156314526582
H           2.16204676216594    0.44543974411177   -3.37437911695237
H           1.38972190064955    1.88294658238065   -1.79998571119172
H           2.00476375121386    0.11105437506515   -1.86188497743992
