    19
        -40.91793146
S          -1.06848592488755    1.23110256048996   -0.65580507261238
O           0.08492870072983    0.66745467404719   -1.32631316782133
O          -2.32876389554247    0.69909253969871   -1.12053776727578
O          -0.93488925987853    1.12765358588803    0.80633363808803
O          -1.05985743881283    2.77951418133746   -0.97636559829566
H          -1.90446416834245    3.09253201974874   -0.66401086621822
O           1.86132386165335   -1.36003992019852    1.49708269786830
H           2.16237618963341   -1.11807965952912    2.37519422222976
H           2.11959100104458   -0.60620880032743    0.89872421956687
O           2.36982161125501    0.67646568031184   -0.06129318359409
H           1.50138223783367    0.77382858545390   -0.51988107985629
H           3.02579113595814    0.60691926970029   -0.75750403636995
O          -1.30529208368933   -1.71254948671614   -1.08870777950530
H          -1.91972305143956   -0.95015865268449   -1.18664443540197
H          -0.52490611610139   -1.43843994434261   -1.58474827570475
O          -0.66975266708675   -1.26171241976467    1.32790312388547
H          -0.81997999195439   -0.20662216175993    1.21323958342858
H          -0.94342109939108   -1.62032601093819    0.40080602045843
H           0.35432094907577   -1.38042605020456    1.42252775715439
