    19
        -40.92175566
S           0.12893344263762    1.03862470405051    0.02437366645059
O          -0.54162584595268    2.05051258033812   -0.72693601776564
O          -0.88965959515286    0.22914568863693    0.87542267426467
O           0.89425539042303    0.10659090529322   -0.77159918377655
O           1.00596851829939    1.66349519239170    1.10261992909603
H           1.21595045474876    0.93576935091590    1.79610338984130
O           2.02012344550838   -1.83303690679277    0.64151744688450
H           2.93558066877837   -1.91151167016014    0.36638167087409
H           1.59609815123020   -1.20816149357996    0.01590210786365
O          -1.01299833535622    0.36802897342196   -2.77881672426130
H          -0.91986677065349    1.22960494247464   -2.34052311386765
H          -0.17845400141176   -0.07914495876322   -2.59727725124072
O           1.33354788774556   -0.29686690784415    2.66861833166772
H           1.66877135336829   -0.97853930627938    2.03310060391756
H           0.41916804578739   -0.53222133380206    2.85051781035618
O          -2.60826949744289   -0.48696621734518   -0.86400814482555
H          -3.35566637194543    0.11593042091682   -0.85899644342129
H          -2.09835947299227   -0.28958660365627   -1.69269990739731
H          -1.61349747702845   -0.12166734937889    0.25629916594468
