    19
        -40.91504906
S          -1.67229867716546    0.59054459966751   -0.03877212227043
O          -1.18718290694950   -0.41198150820296    1.00414314284771
O          -1.80910852337777    1.87603875738997    0.56445520429838
O          -0.89055596638379    0.47067218051925   -1.22954062784068
O          -3.12244354845114    0.07790340868419   -0.39958868248647
H          -3.73564359092096    0.44933249338912    0.23177691469044
O           1.81668950455085    0.92833628252226   -0.80439435939842
H           0.93957195811049    0.88389507345685   -1.21077786780957
H           1.66931715582610    1.37442848099617    0.04989895988755
O           0.73375149118566    1.76153910488493    1.55149092595067
H          -0.15415464953742    2.04827787112861    1.29294696459792
H           0.61525030344394    1.01023974293860    2.13719497412528
O           2.29563476355667   -1.59151148895471   -0.20767537633698
H           2.95959594657865   -1.94086206876258   -0.80387334788897
H           2.22630624336164   -0.62014047144647   -0.40413971185028
O          -0.23813590877149   -2.09902666288621   -0.53005845537102
H          -0.40743189407531   -1.53020747017532   -1.29351130563449
H           0.74804778830721   -2.04329533869450   -0.36433541065941
H          -0.78720948927083   -1.23418297672637    0.45476019116309
