    19
        -40.92071407
S           0.66193638851581    0.21736009269720    1.30668413280655
O          -0.76941437071703    0.04800346800153    1.20783514890309
O           1.35007905186833   -0.91073706565314    1.89100317174088
O           1.23153399229605    0.58363979639357   -0.00516563590273
O           0.93294022308431    1.45544693476493    2.25046254144578
H           1.78890693875715    1.27186144649426    2.62712672333333
O          -0.06842325100909   -2.63280542348641    0.52072626258628
H          -0.93560588219154   -2.48813148215440    0.91061061093665
H           0.55948420203246   -2.14715798032151    1.10627890149010
O          -0.25299837787940    2.34832420510528   -1.37568789406708
H           0.28608786787024    2.76447091520200   -2.04988545025932
H           0.35615113688088    1.83819283786546   -0.80572363646878
O          -1.89705004458419    0.26262504544301   -1.15590078860861
H          -1.74912601241219    0.23644129780428   -0.18241152205344
H          -1.56431464329293    1.14758317186987   -1.41502103651426
O           0.13167287250960   -1.11187990718941   -1.50484560884535
H           0.73029069526607   -0.43456195299724   -1.01842115927406
H           0.03776787781641   -1.86786090110410   -0.81178026964903
H          -0.82991866984028   -0.58081449985280   -1.49588450909235
