    19
        -40.91836484
S           1.01213149271049   -0.12957423013865   -0.28397733153164
O           0.24288589641024   -1.16152574501037   -0.95180293894671
O           0.35126687908605    1.21625988076458   -0.58021579199613
O           1.20339340405216   -0.31901614774486    1.11448270673355
O           2.38641067084173   -0.02979864328794   -0.98514142060720
H           2.20480881259584   -0.13804657809142   -1.95273374569079
O          -0.92589502277163    0.15023658769240    2.75306823279456
H          -0.02223344227405   -0.13066469047068    2.54563628848609
H          -1.48123537280200   -0.32708363880808    2.10811658982141
O           1.39060288903601   -0.69846601974734   -3.29361556799651
H           1.75049800041010   -1.49467201696642   -3.69247630153456
H           0.70096561257158   -0.98204737102231   -2.66534963081957
O          -1.99702804772968   -1.06642090809139    0.55579660166100
H          -2.36346601471062   -1.95131385262187    0.61272223081589
H          -1.22946957105031   -1.12672921473363   -0.04058230887849
O          -0.73534973954902    2.34017627897616    1.37800113609102
H          -0.81678372729589    1.58431026456098    2.03602258890382
H          -0.04256412356979    1.71493795034105    0.24775216196749
H          -1.62893860593040    2.54943810440717    1.09429648077055
