    19
        -40.91033889
S          -0.73209858572074    0.95074955931812   -0.03808078189969
O          -0.10738278366353    0.66205716134024   -1.30033718104933
O          -0.02873413484648    1.85371877476421    0.81754786991587
O          -2.15747722676117    1.47470281273751   -0.27617482953627
O          -1.00481737067636   -0.37436763799580    0.71378953475638
H          -0.14996918107795   -0.85303097978967    0.93312195966603
O           2.15277012789076    0.96593871154107    2.07847431589606
H           2.17637089296748    1.37424510245164    2.94620363709426
H           1.45158977688016    1.42871525977500    1.57865059096536
O           1.25790766322516   -1.42195045383326    1.39048301847002
H           1.20134669207558   -1.98413364920433    2.16662823927467
H           1.73932946685205   -0.60177998609021    1.65799302532456
O           1.10112067427920   -1.86024631326991   -1.52184722543168
H           1.39223183376116   -1.96468836563516   -0.61172188702424
H           0.80140372083158   -0.94616131245282   -1.59645623907964
O          -2.45741114503344    0.00529753126060   -2.37560535291484
H          -1.48983408702189   -0.06131569195355   -2.29860510806504
H          -2.50348653871548    0.93685667293479   -1.03977132852674
H          -2.64285978525615    0.41539281410756   -3.22429223783839
