    19
        -40.91930417
S          -0.47147553939446    1.04628526084805    0.00738904061777
O          -0.57676681894658    0.73814208517603    1.50640859139185
O           0.85301452286069    0.68347615024214   -0.45281925849573
O          -1.54801997822008    0.45511512981044   -0.71609678230323
O          -0.60326752120684    2.58090464606034   -0.02828804561326
H           0.28371442000890    2.93674496322301    0.24065453611798
O           1.93035766317706    2.94022367863480    0.39523865806777
H           1.89452864836284    2.00796283146184    0.10963811167747
H           2.40673905165298    3.42292723703148   -0.28491189987887
O          -1.46060448643098   -1.94359514383679   -1.98894002889295
H          -2.23150253655179   -2.42308975218893   -1.67937827623846
H          -1.56945373965446   -1.02873966405168   -1.67459357502301
O           0.77833186152315   -2.05313725456766   -0.49410515535211
H           1.02660074650205   -1.12257104694089   -0.61155725887015
H           0.06512314074453   -2.20636377709041   -1.14844480042510
O          -0.42497888118227   -1.76385366242275    1.76991268814097
H           0.18401430921653   -1.99200117037224    2.47613984050184
H          -0.57531944664517   -0.27984288356499    1.66744017296193
H           0.03896459224091   -1.99858763487666    0.90631345238953
