    19
        -40.91893409
S           0.34271328171539   -1.66485009928888   -0.36576281089592
O           0.01072209443871   -0.75252219430748   -1.44230673838470
O           1.75253383426207   -1.83991265341378   -0.12464871810267
O          -0.39056337317200   -1.32196348601946    0.86244790803616
O          -0.21632443251357   -3.08281169165717   -0.80959597163332
H           0.32802589671853   -3.69099958569325   -0.31874036271508
O           2.02535807858223    0.77947425019925   -0.29263872557772
H           2.10646765080901   -0.18418751196822   -0.14122036449032
H           1.58399826208303    0.84764945186472   -1.14454399029447
O          -1.49400531134162    0.86177028708620    1.11736033078913
H          -1.73897173864925    1.07164995913374    0.14439356648941
H          -1.07704699433268   -0.12248615142764    1.05534891489722
O          -1.84124402870057    1.05760022037170   -1.38936193619006
H          -2.63376856217285    0.69255903673236   -1.78711138643843
H          -1.12285732878375    0.38879333207995   -1.53496202744090
O           0.68855294243795    2.05678421020267    1.56789333546660
H           1.25202525031727    1.65385179478353    0.85385073357266
H          -0.66918967194121    1.44407793723153    1.34925533856539
H           1.09357415024424    1.80552290409258    2.40034290434543
