    19
        -40.90863227
S           1.59042318987170    0.47354655495602    0.79338788117642
O           0.87151469149126   -0.62575785561147    1.58375145814391
O           1.96816331558632    0.00061608915880   -0.50614120471197
O           0.85408079208121    1.69236663782518    0.83854383288414
O           2.90076307118776    0.64208813521261    1.63516642219533
H           3.44021286292918   -0.12088347338114    1.43870145434363
O          -0.09511409127658    0.03050853259597   -2.20320539160438
H           0.17958622036920   -0.09576570724271   -3.11319144231219
H           0.71619226779378    0.00079649951763   -1.65817659143917
O          -1.07439792820599   -2.32390419155376   -0.89276134578695
H          -1.45601794899989   -1.95543574177930   -0.09173160120305
H          -0.82358186012598   -1.56825415242535   -1.43973789235095
O          -1.54566594376884    1.54433566223177   -0.44017980753702
H          -1.23496912172667    1.11257329727102   -1.25328309364108
H          -0.75393299797456    1.93700712176915   -0.03966003890696
O          -1.62647148982031   -0.40241621360683    1.25324221171799
H          -1.71730278876633    0.34501954077954    0.58138212317057
H          -0.14604362358155   -0.58747379016312    1.45342341621546
H          -2.04743861703628   -0.09896694557103    2.06046961960121
