    19
        -40.92218956
S          -0.99686756333274   -0.54169824686676    0.23008200803921
O          -0.16987526019900   -1.73226537004038    0.03351202997835
O          -0.52420035996917    0.25425677411260    1.35825584870753
O          -1.06733010127088    0.26339579216179   -0.98506339585589
O          -2.42983334583404   -1.05242131645201    0.56042872053825
H          -2.92634331551728   -0.21603535828079    0.67882460887249
O           2.05808945770897    0.41596392357004    1.52632368527447
H           2.29989121981859    0.04153981381493    2.37619836262865
H           1.06386507862235    0.45574277289314    1.51575206503798
O           1.17546197595977    0.42810818253097   -2.27584039940128
H           1.01627170393519    0.05844644581497   -3.14698230090590
H           0.28829533822595    0.46734431864992   -1.82698540924124
O          -2.83325595843811    1.54597364883729    0.66363858274877
H          -2.08624346021028    1.55442899626682    1.27664267907774
H          -2.43113461141104    1.55980750571818   -0.21502845804843
O           2.15022170434833   -1.08171214250344   -0.50334960142508
H           1.92012234344122   -0.45631021794102   -1.29532889960111
H           2.29345424441780   -0.46129737378727    0.31278352845795
H           1.19941090896865   -1.50326817892861   -0.28386364566029
