    19
        -40.91376543
S          -0.79212137130137   -0.39881016569274   -0.87959091775001
O           0.50880538425935   -1.00527200261028   -1.12715588800204
O          -1.47179830610782   -1.10094204743803    0.21827262644719
O          -0.73898404716758    1.02414442310962   -0.64621156568831
O          -1.66613933612602   -0.62906583608975   -2.16235760185030
H          -1.48661285585327   -1.51843986705841   -2.45516446982533
O          -0.50970570378243    1.93670121241552    1.78912676959870
H           0.30159465239500    2.45019487637648    1.79172891026859
H          -0.70495206446052    1.73403751386152    0.84170885781638
O           0.80211658439104    1.02185799445858   -2.99251354488386
H           0.17983616756628    1.47467542237314   -2.41570475824292
H           1.01494752624775    0.20627346728674   -2.52698248648863
O           1.84840924634863   -0.92549836977426    1.09809417219759
H           2.35214019459389   -1.73864988179866    1.17417691260199
H           1.43939865503670   -0.93614349287594    0.19383670814995
O          -0.33495382920172   -0.52693516706319    2.32517669793560
H           0.61506023042573   -0.72746346345916    1.99324053381290
H          -0.42704790764892    0.50255130498827    2.28802731563302
H          -0.92999318672214   -0.84321593937821    1.49229173879096
