    19
        -40.91181027
S           0.14724164692592   -0.31832622985933    0.65396038523730
O          -1.15518658415840   -0.82357188841635    0.35320950742036
O          -0.04691349944334    1.15751951348412    1.14799138541873
O           0.94244987556421   -1.03247966320463    1.60139263285077
O           0.98059552734612   -0.11943637658789   -0.62303777230756
H           0.49640426903696    0.54098074059993   -1.23089408478287
O          -0.40834144680985    1.65057012994364   -1.80606363889449
H          -1.26410398760013    1.19029664558824   -1.95947101928484
H          -0.56156753730789    2.27005520900797   -1.08679842566737
O          -2.63805739511957    0.22142915935243   -1.63288573530822
H          -3.53850194792607    0.38704736633998   -1.34823325701543
H          -2.21056831514901   -0.29404307650718   -0.92446468524510
O           0.34486762663798   -3.21985781880111   -0.09655074981451
H           0.81510234437489   -2.81284662069195    0.63585505040678
H          -0.51715847711398   -2.79821113829878   -0.11929591714688
O           2.46058381765781    1.16624622448523    1.83081896961644
H           0.83635362562926    1.43144250103617    1.50525158405248
H           2.25872702376508    0.23523387925760    2.02098520698270
H           3.05807343369974    1.16795145326199    1.07823056346858
