    19
        -40.91476190
S           0.28600064738152   -0.43135630712235    0.27399454533033
O           0.66285753111598   -1.44216161300499    1.21425460418327
O          -0.94998993737061    0.29145098949832    0.79720281504774
O           1.29463255928273    0.49634581341876   -0.14696400007115
O          -0.21676580481283   -1.13361511297031   -1.03409438815126
H          -0.65491827194916   -1.98189416506472   -0.76092068289483
O           1.36797631534363    0.98140591637635    2.59654676869889
H           1.74245650723935    1.09312518782437    1.71863815488067
H           1.19536454520704    0.04148194570937    2.68934440966408
O           0.27686445781506    1.47606515482952   -2.41767794690059
H          -0.09254466496477    0.69189150528871   -2.83030763357371
H           0.87293421191059    1.15068317213942   -1.71850714601965
O          -0.98596837060168   -3.27732505494610    0.20975500182718
H          -0.54521385822185   -4.10636078870080    0.00636987795688
H          -0.45976262528912   -2.84014717422809    0.90281851013227
O          -1.22464165930057    2.45775344671250   -0.47774753314279
H          -0.74741935115060    2.23303450767053   -1.31580645709511
H          -1.13024191301388    1.18425153015376    0.31627442766347
H          -0.69162030865326    3.11537103642798   -0.02317332751495
