    19
        -40.92136405
S           0.91956835687383   -1.02168163071642    0.18342861749955
O           0.14776937820737   -0.89869427753147   -1.06583154564540
O           2.33130521760107   -0.81314780403405   -0.02284160235576
O           0.34348384847166   -0.20303322744407    1.22634509502406
O           0.73227776208453   -2.53196371816644    0.63600748102112
H           1.46143898275533   -2.98999637269429    0.22755065571384
O           1.95216599701812    1.79429933082439   -0.03533043742215
H           2.27076066982576    0.86458994595007   -0.08861628521329
H           1.78637704281493    1.95116947730165    0.89846289616891
O          -2.34242757040807   -1.20964048578160   -0.11266032904524
H          -1.48093186777970   -1.22781045982620   -0.57064259603026
H          -2.29077642142297   -1.87452993200817    0.57609451126531
O          -1.75010079256102    1.26931259682921    0.66554597982174
H          -2.31098657422609    0.51486349026857    0.37933368452579
H          -1.02120985019579    0.82020692491961    1.15183459075879
O          -0.25793595529310    1.56709749149938   -1.28999792934000
H           0.63111560711559    1.84730433987689   -0.86561437535428
H          -0.12489920050541    0.55587359022846   -1.41011711483456
H          -0.99699463037963    1.58578072049760   -0.48295129654991
