    19
        -40.90224930
S           0.40456376022835   -1.42660616130335    1.86251341460302
O           0.35025072851593    0.00619201858268    1.91495535622348
O          -0.95314118712584   -1.97777809832845    1.37870250341674
O           1.46795368110570   -2.01942650573460    1.13132511638962
O           0.44506671063761   -1.95176353653586    3.34332904357528
H          -0.14577660573028   -1.40740064072467    3.86153588492757
O           0.13604378469032    0.36995322912970   -0.75287172214509
H          -0.66132889841239    0.92893122429083   -0.87459675645240
H           0.31230634870497    0.37099656409818    0.20328916189330
O          -1.57251532750045    2.45410625253099   -1.09012806007073
H          -1.68966165864470    2.94679705409309   -0.27600265847997
H          -0.78655715953274    2.82961024335459   -1.52682853677059
O           1.01092376769682    2.71595975577497   -2.01610005375752
H           1.28244783407507    2.58261400276002   -2.92543571181531
H           1.04443057851994    1.84473545627215   -1.58666274769824
O          -0.27058741075024   -2.23674401749603   -1.03194832172812
H           0.60711501440193   -2.58320827832297   -0.83282630693962
H          -0.83709309621295   -2.18083542788899    0.37823619926874
H          -0.14444086483244   -1.26613312447280   -1.16048580471165
