    19
        -40.91792399
S           0.32331443123850   -0.08525177174803   -1.65712801217242
O          -0.31163640081505   -1.24478205798069   -1.04828450915495
O          -0.57433060653702    1.05269447101241   -1.75494866232694
O           1.57398563310900    0.25977761135282   -1.00224941122913
O           0.67543244323841   -0.51078896708498   -3.14154866054526
H           0.91068973950879    0.32044475955120   -3.54184932793053
O           1.27119843968653    1.72813400251915    1.07141603350408
H           1.40154461118495    1.23498669159790    0.20914327632941
H           2.10197091853907    1.64635917029104    1.54546006392883
O          -2.21821983346034    0.36182108319211    0.08393146709169
H          -1.69071956963554    0.80729084733489   -0.63490213565552
H          -2.22636909726199   -0.55946575008588   -0.20257850363979
O           0.44300792082597   -1.84702715560884    1.33571366878346
H           0.05613033697462   -2.70342051980165    1.52743958445431
H           0.28867801967920   -1.68042259434379    0.36518212686772
O          -0.61161072842762    0.35716073991607    2.00779114562729
H           0.14396178491217    1.01308929842631    1.69912088661170
H          -1.36179349625258    0.42341455245127    1.26112981080541
H          -0.19523453650727   -0.57401440099970    1.87716115863182
