    19
        -40.91898042
S          -0.92250088195348    1.31879860704972   -0.27385521731992
O          -1.31140712780225    0.31712208421993    0.73442185203233
O          -0.38971694463512    2.51643953254730    0.32006038015463
O          -0.05661878609106    0.71176179054826   -1.27227593520487
O          -2.26094829895147    1.71034871713617   -1.02315372680446
H          -2.62800325479996    2.43322965100879   -0.52123471772275
O           1.97936369912257    1.28329160946684    0.32637149722754
H           1.56418711037222    1.03413269576035   -0.52067335203936
H           1.47274202675439    2.07370144304621    0.57829933305590
O          -1.06492744796665   -1.73066225412812   -1.18335753485223
H          -1.75391707515036   -1.55018301350603   -0.53657169654697
H          -0.71152792357580   -0.84751428742168   -1.41788954172286
O           1.03304353936118   -2.51721024328201    0.15417569755188
H           0.20830785949457   -2.36549358490671   -0.39021756872313
H           1.77289126633485   -2.46578958213610   -0.45449440486570
O           0.82016797429521   -0.51921920889245    1.68254527979368
H           0.96217569747688   -1.40218345786338    1.14330997767898
H           1.43313203558861    0.19274117433426    1.24962465418176
H          -0.14644344785213   -0.19331168298321    1.40491503413070
