    19
        -40.92217214
S          -0.49700675401789    0.16798388616642    1.27748910426792
O          -1.73182933466018   -0.32127448079186    1.81981626090056
O           0.44420168592001   -0.84490383035504    0.83400168734155
O          -0.68748102813441    1.19532210344664    0.24521775629336
O           0.26406188494979    0.92111676331597    2.46616249990817
H          -0.42555400735685    1.17607955741782    3.07206754944436
O          -2.34138597814476   -0.88042503415137   -0.74099609662866
H          -2.66469801074775   -0.01722339193431   -1.01002213610891
H          -2.24379077829449   -0.83066944748113    0.22638262879025
O           0.05206449550166   -1.54654466792359   -1.72532869893956
H          -0.91741301174909   -1.44829321496753   -1.59830068464325
H           0.37498187026862   -1.71534843748172   -0.82261332427190
O           2.57585005262875    0.51673319013548    0.17416604175844
H           2.68743440527421    1.22178109499742    0.81477170195735
H           1.91466053010552   -0.10159268587590    0.56201943480859
O           0.82905911523226    0.82666468060540   -1.67327362938361
H           0.13322195820324    1.09467471429153   -0.92481667447387
H           1.68709519693195    0.77298030192956   -1.13432078338965
H           0.54652771813725   -0.18706111135138   -1.86242262758500
