    19
        -40.91209442
S           1.35013932179761   -1.10137296932300   -0.86330963599386
O           2.22969167333153   -0.14165944515822   -1.44757499589563
O           1.36676566950897   -0.97150964894317    0.65390619212135
O          -0.00090830231099   -1.15087066889464   -1.33681977397555
O           1.97341232762526   -2.53270025595636   -1.12055084200354
H           2.92486903915547   -2.44490987046088   -1.11573282034220
O          -0.76077385281143    2.48473192037425    0.54586932870917
H          -1.31635350492856    3.23612149050106    0.33071756267500
H          -0.40245899598726    2.16365476083227   -0.31238390345065
O           0.09417210351846    1.54076672150402   -1.81104425083035
H           1.04412781400047    1.36412522779661   -1.81376032139773
H          -0.30620155966113    0.66401132285061   -1.88036922821068
O          -1.93674263885557    0.56628037293168    1.97481947503237
H          -1.68774601904653    0.75547252891835    2.88113034867218
H          -1.51279311976419    1.26742755164974    1.42604961123402
O          -0.93761284877247   -1.71593514018155    1.16314173630438
H          -1.15360008807455   -1.76790271488830    0.22196128255996
H           0.42569487340623   -1.31904529449785    0.99795812454906
H          -1.39368189213683   -0.89668586906027    1.50599210023404
