    19
        -40.91606923
S          -0.27822143351625    0.34193276430223    0.88894366100627
O           0.86943137587614    1.07260245046842    0.44315367040847
O           0.21157372440934   -1.08546484229924    1.29635851297560
O          -1.04228916595304    0.90703142206671    1.95465641988308
O          -1.20753071635132    0.07391924886149   -0.30376147347392
H          -0.67777450446854   -0.54405612876690   -0.94576356181203
O           0.11987485226360    2.23158140898930   -1.98075157149688
H           0.34852486208122    2.09402209719984   -1.05037810568801
H          -0.78393122418170    1.92625812693928   -2.08233578176178
O           2.16047373156207    0.37058320121138   -1.92326130805200
H           2.15025471900085    0.62466123784977   -0.98923200828949
H           1.67954532314314    1.08765563088076   -2.36775676699341
O           0.28794363384155   -1.41881640905582   -1.65562616786964
H           1.05017507039775   -0.80913548838608   -1.88565391407971
H           0.62592480043323   -2.04047354083958   -1.00554337525311
O          -1.72105931780915   -1.42372813186513    2.97794021728464
H          -1.81040086261626   -0.47087101505311    2.78507271081654
H          -0.46823180047927   -1.43737114212899    1.93102877746286
H          -1.51428306763408   -1.50033085036515    3.91291006493960
