    19
        -40.91463209
S          -0.00881751677613   -1.56714826611796    0.79267873244779
O           0.46221019581114   -1.30446810435905   -0.63537073702165
O           1.12519311975793   -1.70993918948579    1.64809377350801
O          -1.02191476763271   -0.62501323626378    1.14700711470571
O          -0.71009900549005   -2.97947936262393    0.69721409132329
H          -0.04501804351550   -3.64964273954053    0.84136788797698
O          -0.80270796750514    2.24135582591395   -1.55786995613315
H          -0.03014617148977    2.54027126070925   -2.03928727237277
H          -0.56870394485407    2.28412157080586   -0.59444070979981
O          -0.06563579851905    1.97904357732786    0.95931004806314
H          -0.56399375313846    1.20196524587156    1.24812489717678
H           0.86397259065964    1.68840453062657    0.93460026764597
O           2.25296301064699    0.55719207094280    0.65913945018875
H           2.05535082500423   -0.21553251659897    1.20938712391409
H           2.38157439474230    0.21811550835015   -0.22960415388053
O          -1.56800742022242   -0.24221930985796   -1.54607437764560
H          -0.37975537038160   -0.87307096067588   -1.14165528546746
H          -2.05133589879574   -0.26513802885518   -0.71014415053796
H          -1.32512844831921    0.72118212383557   -1.68247675405489
