    19
        -40.91893907
S           0.57013107839474   -0.27656682611124    0.81289474129501
O           0.52985543691164    1.08784293589509    0.33794725178660
O          -0.46915668124236   -1.09427148087022   -0.02125645172911
O           1.83302542979406   -0.92876426733549    0.73225827196610
O          -0.00561744787111   -0.33405170950426    2.22401426451939
H          -0.68071541017491    0.43725627777373    2.30551344747784
O          -2.78532130425701    0.42300730085516   -0.00047466917029
H          -2.10037070914353   -0.26066743072445   -0.05395526515089
H          -2.83274391144103    0.83367672371748   -0.86625590342388
O          -1.53731745722180    1.66352221583285    2.02816168576036
H          -2.21640212200066    1.30695676944104    1.41614496571854
H          -0.88134478504737    2.09213040228438    1.46177538215672
O           1.92172834634396    0.53597596898134   -1.89856638246828
H           2.84042005056865    0.60604678045429   -1.62909590400044
H           1.40204983404683    0.89984175082746   -1.15915005221176
O           1.12452753611879   -2.00223962405144   -1.74953248597998
H           1.43697979469196   -1.11178796134348   -2.03773391087344
H           1.79290152053079   -2.31809024073480   -1.13128146851015
H           0.05737080109990   -1.55981757481198   -0.77140750043971
