    19
        -40.92315385
S           1.17221302141305    1.07625615144183    0.59192275485940
O           0.10338564949713    1.45327857684001    1.52032852751838
O           1.33293528551260   -0.37912646294481    0.57496047505122
O           1.00850611889518    1.61644239301778   -0.73079386135099
O           2.49140240126590    1.67981030274816    1.20438755893799
H           2.36649844494946    1.54642698903809    2.13879346169956
O          -1.25593809469918    0.65797034644213   -1.64615957396593
H          -0.47767812127076    1.23189949945932   -1.46257630138687
H          -0.84945053235312   -0.20778660303427   -1.86573079435715
O          -0.79764081187643   -1.90683471428145    0.98901251341019
H           0.07452861120889   -1.45656450014799    1.03290233911444
H          -0.78584781436199   -2.39226916330095    0.15726945467062
O           0.38799256814744   -1.45774673584570   -1.66156563244897
H           0.86454386191936   -1.06511371636649   -0.89665684190605
H           1.01795368921778   -1.47988293200312   -2.38324830121896
O          -1.96762249298939    0.33375478646419    0.72048238565863
H          -1.19567576755712    0.89042633067527    1.15089698670224
H          -1.81746790256474    0.49589164934667   -0.32574374533059
H          -1.67263807647578   -0.63683217823844    0.89151862160057
