    19
        -40.92071402
S           0.02368340430613   -0.34603649582044   -1.44057146289784
O           1.24378776643171   -0.09235532449896   -0.70944134995265
O          -0.17943547893150   -1.73468692261497   -1.78418874963403
O          -1.13722549521496    0.21256628975815   -0.71982886073494
O           0.10736823030763    0.45317148873171   -2.80097727969787
H          -0.43996442298228   -0.05107779340359   -3.39624911126310
O           1.07472092093408    1.07565419653200    1.63709636034483
H           0.56610554620506    1.87508244652595    1.38422265891141
H           1.41302887699381    0.73561772956604    0.77649437669615
O          -0.68698935248928    2.62136944006964    0.37117927455963
H          -1.52527791676385    3.04062295155356    0.57082434345769
H          -0.89097823868959    1.82888703086098   -0.16420114132212
O           0.58894453520604   -2.55317172501036    0.58102374623310
H           0.26842995381959   -2.43998313928494   -0.34493987779152
H           1.51571596971794   -2.29731597462060    0.55683171567279
O          -0.71532915934412   -0.63270937136156    1.61346603229447
H          -1.07714484411489   -0.30671091058341    0.71034761942508
H          -0.22212584456430   -1.50030790865230    1.35888258632243
H           0.07268552917335    0.11138400227214    1.80002911935746
