    19
        -40.91235052
S           0.71194637561507   -1.37259240702457    0.06766006798381
O           0.49655647492450   -2.75634666768757    0.35355908823242
O          -0.37112976016022   -0.53057847749019    0.80127900669548
O           1.99091276120039   -0.80411549810259    0.32547726826198
O           0.33407817369405   -1.10488353480726   -1.42840912329206
H          -0.43576771860946   -1.70266895142765   -1.60921818355394
O          -0.92687343123413    1.45150086940462   -1.09856732084779
H          -0.98614648204576    0.75233988105957   -0.43113180554265
H          -0.43840016970241    1.06676327758111   -1.83183960412071
O           0.55033851185487    3.14227243216597    0.39757709202125
H           0.00102894898697    2.64684869465354   -0.24713311168129
H           0.00580206716550    3.85907363630989    0.72721429818023
O          -1.60632166341028   -2.82150495219682   -1.23656351393449
H          -0.96920713203423   -3.17834970273093   -0.58928424288867
H          -2.37703785175131   -2.53884775196698   -0.73814370013338
O           1.06246955544733    1.10149148343263    1.99901422144327
H           0.14645045324339    0.17257439418231    1.40382614569593
H           1.86173692598263    0.67634834533821    1.65442187779223
H           0.94956395073119    1.94067490943322    1.48026153952811
