    19
        -40.91904997
S           1.06142473783983    0.34222169202534   -0.34465834730232
O           1.33991977412558   -1.06791700342822   -0.23678779719338
O          -0.24228127129784    0.49687494372989   -1.15136296732747
O           0.97021066379233    1.06938131426396    0.87873521730802
O           2.12934979061487    0.99807157923829   -1.25485419478139
H           2.17160129478746    0.41765301151669   -2.05498251698596
O           0.01820228210745   -1.30846167291024    2.13340637499903
H           0.49875983440649   -1.45088048205738    1.30230119738687
H           0.47767523196019   -0.58192375748794    2.56358587018354
O           1.65141683115061   -0.95280703324682   -2.91395741350268
H           1.58440089151849   -1.43454053559173   -2.07399799298000
H           0.75104914366016   -0.81303754043117   -3.21991497277448
O          -2.42488500556287   -0.29719882330549    1.65588760584015
H          -2.93994164816066   -0.96967356682166    1.20782583342290
H          -1.57158704969139   -0.71892903008495    1.90415386031757
O          -1.62825745500926    1.87532415072210    0.39086966555258
H          -0.87312034587208    2.13342417349797    0.93499410384735
H          -0.89782192494037    1.11609564421744   -0.61343961857027
H          -2.07611575635236    1.14632292700837    0.89219609274219
