    19
        -40.92113570
S           0.52274973237434   -1.07121973975878    0.01478163929183
O           0.55629382449706   -0.10131367388784    1.09293292735541
O           0.06177070758604   -2.36493851314509    0.37908595467621
O          -0.37314629451871   -0.48167604018060   -1.11274458685147
O           1.89356188997708   -1.13324220311063   -0.65218261891893
H           2.02035386292470   -0.26302033239842   -1.18075824372116
O           1.91364569716118    1.08242168687493   -1.87943762343092
H           1.07740325956771    1.01486360730738   -2.34977403424342
H           1.75545091724384    1.70396615347400   -1.12646389109572
O           1.33024321079848    2.33064949481327    0.37768684054636
H           0.99950450337210    1.48200546202120    0.74119212065752
H           2.04997273751639    2.60685622519017    0.94850455907640
O          -2.04063447330151    0.02881628106552    1.82455048279629
H          -2.25264880673620    0.96312168790337    1.87619163706770
H          -1.07226002251201   -0.03267881960010    1.73755032948318
O          -2.50150085201954   -1.55075709401280   -0.28272115176219
H          -1.30923400985154   -0.85628587074120   -0.93546265860706
H          -2.04056075745829   -2.35192296843010   -0.00237972935725
H          -2.59096512669226   -1.00564535341938    0.52944803704659
