    19
        -40.92136392
S           0.61209645814823   -0.46654437813037    1.15406531982686
O           1.74818240878507   -1.35274361537846    1.10010223478586
O           0.91780657583570    0.86747088041222    0.60757959621777
O          -0.59044117921955   -1.00339615691191    0.55812826716780
O           0.28683394350635   -0.21780292041607    2.68798698555821
H           1.12994614757573   -0.30936470220781    3.12276066843185
O          -1.49895901958438    2.02110547822776    0.79635165986781
H          -1.88733861036542    1.70993926222766    1.61577805258045
H          -0.56361025916227    1.74378060943030    0.81848360313966
O           1.27562444499916   -1.81781591586707   -1.44993352796045
H           0.49658147126519   -2.37716129481846   -1.38454118479017
H           1.61545444659230   -1.73893639685112   -0.52968931390642
O          -1.81605812612398    0.39357770277626   -1.28959439130181
H          -1.59683621549422   -0.30639744976796   -0.63290384589946
H          -1.95720047922278    1.18238982750987   -0.72074058787838
O           0.58495976812439    0.60328684289172   -1.86480729341173
H          -0.50522147612978    0.56142059225986   -1.78030365897946
H           0.84479274993084    0.87657499850292   -0.90931840674652
H           0.90338695005777   -0.36938338414999   -1.89940417697540
