    19
        -40.91892669
S           0.25445158227189   -1.37153721398491   -0.33585250034969
O          -0.32708239463105   -2.17037623521103    0.72135461299059
O          -0.69451389878971   -0.60062643124369   -1.10028094195151
O           1.34058553798250   -0.51462077125401    0.17547376866589
O           0.94923976877563   -2.37180678447913   -1.34466872625759
H           1.35497849685812   -3.02916917358734   -0.78693419532115
O          -0.90411232389620    2.12221590671460   -0.77148383009891
H          -0.13331826871941    2.09531228866089   -1.38260680563370
H          -1.37039611153637    1.29400626512053   -0.96703093724412
O          -1.48166646648377   -0.38943645271356    2.21962319979248
H          -1.45717339055333   -0.70754159316142    3.12474807041128
H          -1.15523957104309   -1.13478409076979    1.65310912955978
O           1.13932251054953    1.08389867257616   -2.14423443328180
H           1.86947232844931    0.85927202182500   -1.56010850252201
H           0.52116801533478    0.33816490987544   -2.06424654158877
O           0.16927864114843    1.33300196858024    1.34508048897975
H          -0.30872302801662    1.79337848334300    0.51040709441874
H          -0.54696680285349    0.76788007532338    1.80905587357956
H           0.78069537516038    0.60276815439395    0.89859518589295
