    19
        -40.91892046
S          -0.39550218109831   -0.07681950002466   -1.10176237541431
O           0.46652756421070   -1.22679109192144   -1.13101415860752
O          -1.57452568147764   -0.18345489890710   -0.29710207703370
O           0.43740372384313    1.13812077143139   -0.65150145942331
O          -0.80480638471133    0.29010632893744   -2.54957480027762
H           0.04564254056752    0.30242746449261   -3.05551301371353
O           0.29269698262570    0.02630974326763    2.95485313193166
H           0.01904752646469   -0.16175586465185    3.85423862092950
H           0.11382066845895   -0.78918771661658    2.43297446342079
O           1.73287206428007    0.10927435156702   -3.10476636702751
H           1.65682851492927   -0.62300132507121   -2.47237640869513
H           2.15457470747997    0.83256109500496   -2.63248289116195
O          -0.41932115441472   -2.01344389909785    1.37120880259894
H           0.20627690002878   -2.13735116704477    0.64646610797279
H          -1.17334314873526   -1.57744477954241    0.95067124671717
O          -0.80516478958829    1.85929043445608    1.39386489050758
H          -1.59359610273554    1.36998849774165    1.12585294343059
H          -0.35589734216685    1.29638619015756    2.07389168627676
H          -0.00353439797378    1.56478537579950    0.19207165757684
