    19
        -40.92120612
S           0.13061831184623   -0.97798463296984    0.96321185787648
O           1.33579623913761   -0.26412504950414    0.54019148408298
O          -0.22781875959227   -0.72808620493373    2.33220047129743
O          -0.94431211226145   -0.80735700457608   -0.00081942409081
O           0.50892101530825   -2.52676631121535    0.86439643938619
H           0.85093591413853   -2.73926042260333    1.72774596339626
O           0.18196425261830   -1.34904634404434   -2.30234688289057
H          -0.37635095603141   -1.29770919621303   -1.49250274401704
H           0.76304554969818   -2.10185978004572   -2.17863215790346
O          -1.16669654104860    1.74997045054674   -0.75304232325830
H          -1.45394436567370    0.83030506347870   -0.59692825996043
H          -0.96064125469398    2.07368091313402    0.14994117739769
O          -0.52748687434987    1.87534161956800    1.82876989263228
H          -0.37246725700702    0.94136373815159    2.06920758019040
H          -0.99162329753596    2.27022867355430    2.56993905183686
O           1.04489207947577    0.95640905144548   -1.59190313404418
H           0.12452673013057    1.43837308063483   -1.34354736293938
H           1.30319271045191    0.52463234229295   -0.66721397506808
H           0.77744861541022    0.13189001329055   -2.11866763391013
