    19
        -40.92139805
S          -0.24348208747100    0.86210940245225    0.81642263486146
O          -0.82020494019457    1.07044157130947   -0.50830005574382
O          -0.56021709879871   -0.47994962257312    1.30198993736925
O           1.19699392091388    1.10417221398374    0.82369579978134
O          -0.87101449351129    1.89421628520662    1.79645246201671
H          -1.82631717775358    1.68541855960396    1.74699203616821
O           0.63140444324636    0.30894446166493   -2.52194890574358
H           0.12019948774161   -0.38716996548485   -2.94062810712183
H           0.03942430295855    0.71474814396000   -1.83471220471994
O          -3.04709892466727    0.63465869929918    1.00883449672246
H          -2.57563969908079   -0.16419727208135    1.27924875202925
H          -2.70937229778947    0.83487576443561    0.12527897006169
O           0.98001987662600   -2.25414787284096    0.22902461017606
H           0.31795676716905   -1.64002390972598    0.65352811550286
H           1.35629457016487   -2.76987774657584    0.94547637439560
O           2.33428184276285   -0.37619754014623   -0.78938180580061
H           1.91273114828188   -1.24841806667798   -0.43342187084727
H           1.77672224033150   -0.12128310838575   -1.62338878368419
H           1.98731810908516    0.33168001259394   -0.07516244545108
