    19
        -40.91749341
S          -1.22991883534093    0.38971645350364    0.19731476115348
O          -1.22732606953862   -0.82873683353777   -0.56069055722940
O          -0.12846148283970    1.30800594866075   -0.43759801718421
O          -2.44716225554110    1.13579443978797    0.25800397346992
O          -0.72008649241119    0.11985909235893    1.61171575728038
H          -0.27495070052703   -0.81718152163760    1.63635436690334
O           2.48213714416368   -1.81112775093225    0.01079017105470
H           2.05930139271653   -1.42068015820678   -0.78926222535723
H           2.97799565663357   -2.57520537486168   -0.28792393351029
O           0.23847114747604   -2.18227190731938    1.35988147960874
H           1.14948989565110   -2.06747489463680    0.98552546733769
H          -0.33534181430727   -2.37027637179502    0.60687032702573
O           1.06165661986834   -0.77122218313515   -1.99768316011985
H           0.17124218205003   -0.88983233775725   -1.62029553919487
H           1.19922610868132    0.17921219296389   -2.01345524687474
O          -1.20940384851386    3.45561707873216    0.54052896924730
H          -0.30494135070054    2.21751229096107   -0.08524999841632
H          -1.53631687669865    4.12611073952822   -0.06464144775725
H          -1.92561041098315    2.80218108745269    0.64981486274677
