    19
        -40.91517828
S          -1.54334507559002    1.11023790383424   -0.26218788137914
O          -1.61694932874110   -0.29694925810191    0.13078846493328
O          -2.58782340049045    1.94413975394607    0.22896697022009
O          -0.18232336664124    1.61349542296799   -0.03216059856775
O          -1.69513502255737    1.11058792189539   -1.86347772390276
H          -2.41286439276739    1.72488891148603   -1.98054364010773
O           2.48853969390236   -0.81357254529948   -0.36689198710369
H           3.09489632672192   -0.30306287303589   -0.90649062224930
H           1.66607220145757   -0.94452272776864   -0.90989243434259
O           0.20300021881351   -0.92078682042952   -1.65286632696422
H          -0.51398759723579   -0.81396318118051   -0.99270217437531
H           0.01174084119062   -0.25191712461234   -2.31469416697369
O          -0.39012503943128   -1.25282838383718    2.22028565014614
H          -0.19967766910145   -2.17078311673250    2.01298131594416
H          -1.01299269984829   -0.93459892811962    1.52208726493427
O           1.34954546479660    0.45706473312174    1.51001538141091
H           0.72796324251486   -0.23866145857382    1.94039290458186
H           1.92096555469999   -0.05691083539301    0.82273882139571
H           0.69250007897320    1.03814259524913    0.89365077280004
