    19
        -40.91215930
S          -0.95971696615521    1.35028181074467    0.27650233139632
O          -1.26853404965969    0.10358913574592    0.92621997802872
O           0.11919432724773    2.09454371040887    1.05813664949569
O          -0.66855896704069    1.27866197660653   -1.11382270398322
O          -2.19198728155819    2.30057274259167    0.47410328583504
H          -2.46010328120320    2.22944521718828    1.38797720639175
O           1.07358353076631   -1.33610518522406    0.98782718644347
H           0.17088319479509   -1.00355077072559    1.11208505009188
H           1.06426736656091   -1.80751307055694    0.12175306816470
O           0.81315461632661   -2.25402453266845   -1.50489622080712
H           1.29208026962249   -1.72288665238193   -2.14347069435489
H          -0.13571604162140   -2.03005686541429   -1.62227469597217
O          -1.66892540320399   -1.20707643521970   -1.54486756780990
H          -1.91537045151114   -1.24902173701286   -0.61538152116571
H          -1.36855693408368   -0.29440955599823   -1.67824513352032
O           2.27365323448492    0.89986626593136    0.71886340631862
H           1.06096277140986    1.65758437394233    0.88699685929330
H           2.86102876691769    1.03521195441703    1.46673864474895
H           1.90866128792348   -0.04511238237138    0.80575487140727
