    19
        -40.92122940
S           0.94821440126589   -0.32358211830251   -0.52611251823445
O           0.70527316247164   -0.44334329753153    1.00362849137660
O          -0.26053874322514    0.19222888246035   -1.12666304064239
O           2.12004426084020    0.45010971923547   -0.78544930237742
O           1.17259705868233   -1.77267182981671   -0.93693785472339
H           0.35271587925508   -2.33220577965076   -0.69152369718289
O           0.75996901442304    2.77075391770086   -0.75762275564913
H           0.01745757759626    2.40696990274182   -1.25139559579086
H           1.48263820782636    2.13556903351254   -0.90360076604593
O          -2.21131495283089   -0.82127870127852    0.35882376557236
H          -2.00091631496014   -0.51091103807386    1.24237454096423
H          -1.63296394308645   -0.32067432837445   -0.25177698854518
O          -0.96555327491121   -3.02418437725635   -0.36392124275943
H          -1.38679864205564   -3.32549487072512   -1.17254477452592
H          -1.53483729522724   -2.29414784602287   -0.00630152603030
O           0.35700826164026    1.98294289097862    1.71581515303236
H           0.43866107112108    2.42367887143124    0.82757554108538
H           0.55853510391525    0.48602024278744    1.37548505990826
H           1.07980914731588    2.32022073615651    2.25014749049301
