    19
        -40.91941576
S          -0.76040345330236   -1.42830789513702   -0.06843101959217
O          -0.25662026744243   -1.14450159398024   -1.39996020637056
O           0.33974083444191   -1.73858044871327    0.85259675050598
O          -1.62488682768008   -0.38907082196784    0.44399795383241
O          -1.62870509561574   -2.73856091126439   -0.16444290748026
H          -1.02007428503687   -3.37247229339530   -0.53093152207007
O           1.74866636768039    0.61648019627033   -1.39086397176705
H           1.22252394429526   -0.18645281987801   -1.59094440970305
H           1.10738765307778    1.33509366628335   -1.55591284485650
O          -0.41371693884477    1.50746867538915    1.73443837360722
H          -0.68701993199356    1.49786185032915    2.65354911547375
H          -0.96781024819828    0.82732541449423    1.27059005294179
O          -0.73866600078127    1.59771493640562   -1.49836423852046
H          -1.29244133643327    1.88890224869047   -0.77104733851284
H          -0.87730154261492    0.64117877735212   -1.57279724240996
O           1.73336692427556    0.29589446959851    1.08040365943351
H           0.99669644871406    0.92151753690270    1.40800393518339
H           1.24736562809552   -0.63748325241710    1.05991677623307
H           1.87189813739356    0.50599226505795    0.04019908407328
