    19
        -40.91857442
S          -0.01205810725830   -0.58020231727396   -0.93839908866629
O          -1.01989818364969    0.36614310069464   -0.50659151949317
O           1.32397267237648    0.14234812752387   -1.12094436938506
O           0.13192336833140   -1.72557160896726   -0.10022060121014
O          -0.34589938239320   -1.02907284165660   -2.37565035644899
H          -0.62895587471684   -0.20324458672706   -2.84514283437737
O           0.84579941188422   -0.98034764156218    2.42537798555527
H           0.01812479635538   -0.48965577852783    2.60061816700622
H           0.63995400832569   -1.53164579878362    1.65314329593320
O          -1.27794918620738    1.32112771737014   -2.96461614886142
H          -1.29110087242021    1.33594734698920   -1.99020355847301
H          -2.18937731836961    1.39010799770374   -3.25966156837074
O          -1.54370484513537    0.26220176475503    2.16730426308818
H          -2.31172877450760   -0.30768310827616    2.23663210165750
H          -1.39755074055837    0.41035200683642    1.21646017296562
O           2.31086513217335    0.69818600311669    1.12015973754131
H           1.74302526719854    0.42616207566501   -0.21506437741089
H           3.22100993145311    0.39517129240586    1.16019458003370
H           1.78354871713696    0.09967626864060    1.73660411897548
