    19
        -40.91469028
S           0.26998384933947    0.11561758364604    1.34980254572870
O           1.33410111115883    0.41546895677306    0.42083234343179
O          -0.27023047431152    1.21276340603858    2.07248779421866
O          -0.86677819200661   -0.59214039875582    0.56393089607173
O           0.75568648141537   -0.98862817530394    2.31273999818295
H           1.29644392624719   -1.61372163158416    1.76197977051524
O          -0.64605877733031   -0.77792937222233   -2.26110597591575
H          -0.63562307504011   -1.00405293153313   -1.32140176538424
H          -1.51585460051230   -1.01106543539895   -2.59146598666001
O          -0.14745000071642    1.80456057164880   -1.45175061016433
H           0.56407289437125    1.55884595131593   -0.84241219968153
H          -0.25089904210318    1.02908753547715   -2.03174703960364
O           2.22340285681293   -2.07852971447458    0.47130077308971
H           2.08796781852413   -1.18472669856442    0.10618571234587
H           3.16691371016976   -2.18071822292256    0.61901710594871
O          -2.22351062616058    1.45043320333670    0.10249613853567
H          -2.00905876317914    1.90806832413976    0.92421535461949
H          -1.56532207425931    1.77670560891215   -0.57162899384490
H          -1.56778699278306    0.15996144906957    0.36652413834124
