    19
        -40.91908468
S          -0.33885341376217    1.28619014655252   -0.59608977101614
O           1.05689404862821    0.70580676407739   -0.78376865476682
O          -1.14907253640441    0.38158993314212    0.19496310958817
O          -0.25375374210321    2.62446788021243   -0.13614898564017
O          -0.93659107679020    1.27727566848206   -2.04378607764332
H          -1.08512467873767    0.34743164848469   -2.28731568863026
O           1.26642910526608    1.51298431051329    1.91800786640859
H           0.67933272794083    2.09686486424092    1.42054606554163
H           2.12157084456919    1.56968187046207    1.48519630229732
O           0.19670908182930   -1.03819183773615    2.08641218884720
H          -0.58238173817180   -0.62075997874377    1.69127647352322
H           0.75046823811965   -0.28039658787078    2.33575695986361
O          -1.38478964844052   -1.40451036613067   -1.66461233989964
H          -2.23176098730002   -1.82115727285341   -1.83692579560298
H          -1.48015722954096   -0.88172380859048   -0.83959327401753
O           1.09069812195009   -1.72228764206119   -0.26872725889846
H           0.32827153734230   -2.04745275390768   -0.76636530680476
H           1.13625983512253   -0.34249287262307   -0.59981815287617
H           0.81585151049015   -1.64331997561585    0.69099233976099
