    19
        -40.91359137
S           0.32973943317906    1.34786948607189   -1.41165820390838
O           0.24492740684357    2.56973210832237   -0.67502259977360
O           1.59535150789152    0.58588474766307   -1.07628390743554
O          -0.82633241504096    0.49635746836089   -1.31765949959199
O           0.53744170405384    1.68474635556902   -2.93165149251402
H           1.18762580525581    2.38312559026585   -2.97148856305061
O           0.58513937880076   -2.62982755757835    0.98248716531793
H          -0.28195103721484   -2.42744221636742    0.56383282529774
H           0.40878572294082   -3.22933926654979    1.70897846743880
O          -1.04203395890720    1.04192431162447    1.32277656327151
H          -1.15950179117832    0.90235255812836    0.36773978606810
H          -0.87006714513160    1.98358404500122    1.41135926793455
O          -1.74864251262823   -1.71836083667937    0.03502730649755
H          -2.12979819026440   -1.17436544041914    0.73003594855473
H          -1.48970095931999   -1.10038763507710   -0.66574703711722
O           1.37057390060588   -0.13439874099348    1.26576505054885
H           1.20655531354634   -1.11201531602870    1.20263405192072
H           1.58000470034098    0.25776731400333   -0.03036749304118
H           0.50188313628559    0.27279300467783    1.48924235346730
