    19
        -40.92079083
S          -0.11434204971147    0.03262862179963   -1.48107997327536
O          -0.25989042816429   -1.31208446317853   -1.97555687666161
O          -1.30784765894278    0.50360329052626   -0.77541162828221
O           1.08558263556905    0.25091365544310   -0.68529349903590
O           0.04871119377715    0.98082398898809   -2.73780985513365
H          -0.68423655272714    0.73721746976757   -3.29450711811398
O           1.10138172347321    2.44807678003607    0.74690676033633
H           1.93984191270471    2.49772018141977    1.21052151612103
H           1.19675061878546    1.73811137933331    0.06883116852525
O          -0.86837578250701    1.05239898004187    1.59770456896002
H          -0.16640820147777    1.76754250155884    1.43658207570016
H          -1.20385077193561    0.85255401958448    0.61851394002840
O          -0.83133582586151   -2.65176506269293    0.22978459042841
H          -0.70624813834335   -2.19435520682763   -0.62985949809134
H          -0.64215299308053   -3.57814610211283    0.06912821636350
O           0.60745851758922   -0.95549771813104    1.64380033115533
H          -0.30024473690745    0.17232300929422    1.79835306157661
H           0.04969415356975   -1.70383032606596    1.32570855901451
H           1.05551236418723   -0.63823502878661    0.83368366039207
