    19
        -40.91971853
S          -0.41984693377129   -0.61429465356429    1.20363043386432
O          -0.57361603676008   -1.50433134369791    2.30572197198730
O          -0.92025106382469   -1.32435862567471   -0.06014440016340
O          -0.98739165450086    0.69439517624225    1.30359616722853
O           1.11248874594887   -0.41426739543164    0.90565190021598
H           1.46310503540088   -1.34112344862417    0.92514907009773
O          -0.98860348230076    2.62136488099309   -0.52382434330829
H          -1.01577644634119    1.98432478350526    0.21866762014929
H          -1.45739164513670    3.40212868318621   -0.22583478054818
O           1.27249571956043   -2.98891695301855    1.09106895536445
H           0.81869439323879   -3.39776903431971    0.34908376492318
H           0.59518841213959   -2.82307863180176    1.76974131280331
O           1.45974088819118    1.41284640440873   -1.24662568426325
H           1.61967754453310    0.91727274884119   -0.43405387233766
H           0.90686398308809    2.16835971254698   -1.00123549451504
O          -0.80335176876474    0.26828571276909   -1.99134736289719
H          -1.30213680314587    1.06034045476019   -1.74076214187562
H           0.13824646144401    0.56948758885269   -1.95430444415543
H          -0.91813535902534   -0.69066604997210   -0.89417868256799
