    19
        -40.91241687
S           1.11971965030243   -0.93073503953880   -0.23088167947620
O           0.64668654872156   -0.62188851357503   -1.56275757476820
O           1.88036703932902    0.15126482572602    0.37066031705553
O           0.03003936262148   -1.37688530196369    0.63845323322375
O           2.09553597357449   -2.16344470973215   -0.37385099658840
H           2.40038130998650   -2.33480644063954    0.51320127873239
O           0.08793082230008    1.94555442565466   -0.40472843083620
H           0.05098922145655    1.83438070683547   -1.35908540053644
H           0.87501413815642    1.43615327608427   -0.11470102165843
O           0.30884560109779    1.01777991449549    2.44012784428683
H           0.98371973084488    0.62912008281987    1.86508801485844
H           0.53975618431242    1.94282653302513    2.54092491376808
O          -1.94156905301256   -0.60215683085186   -1.80803788799677
H          -2.25177569775872   -1.50866256259439   -1.85626256885264
H          -0.95151896013288   -0.64520417239056   -1.86289562839223
O          -1.71767476126001    0.38161318179527    0.51071900653753
H          -2.01936480147228    0.03609659247443   -0.41338835833173
H          -1.04039924219569   -0.36215731531406    0.80240828201520
H          -1.09668305760070    1.17115133951515    0.30500664696743
