    19
        -40.91176144
S          -0.06726113559529    0.50392523939096   -0.07635232186023
O          -0.12498484460649    0.93512765532625    1.29549100354976
O          -1.28104365323545   -0.04577058612016   -0.60007486865534
O           0.36675889048095    1.68036615626018   -0.97643643187679
O           1.09019509972917   -0.49273877238238   -0.23386607776558
H           1.00629356077789   -1.15665439290180    0.53930982626169
O          -1.75893326604164   -2.49392992336721    0.45527971405616
H          -1.80104386209381   -1.61090914785199    0.04774962210253
H          -1.73618098623796   -3.12293383091522   -0.26954820259592
O           0.46646160022918   -1.89731600780906    1.76756829586151
H          -0.36395187220674   -2.29454779712055    1.40966818537832
H           0.19345309132152   -1.17313616412726    2.33983077176161
O          -0.29976751756213   -0.30850053372539   -3.19972553866310
H          -0.80243333372992   -0.26463922158714   -2.37845063927660
H           0.25785602043239    0.47128874588354   -3.20798826425747
O           1.58047347327636    2.93098824744113    0.92647343401941
H           1.24204643153635    3.80000598325150    1.15730604939748
H           1.06498196466007    2.27816958375766    1.43500912206839
H           0.96708034894233    2.26120474668594   -0.43124367948851
