    19
        -40.91990202
S           0.86846081098225    1.01763009926527    0.69975373507459
O          -0.03271483866905    0.09161271431140    1.36752238504679
O           1.05219673665261    0.60309754777469   -0.71021760627527
O           0.47854784221037    2.39190296590935    0.81697706124958
O           2.28158840170287    0.83690031652439    1.37688033069734
H           2.37261633918056   -0.10191734841134    1.52608635557760
O          -2.03809866411080    1.79967065994492    0.31129048431306
H          -1.16770713753639    2.22313504678902    0.49229228539840
H          -2.24687251275351    1.31077899949268    1.11298960604417
O          -1.05120269703804   -1.87848396002056   -0.01196681462967
H          -0.20624744764549   -2.27000216680475   -0.30750369489995
H          -0.77471884647112   -1.28535941001597    0.72514642949118
O           1.56986687277759   -1.98656971558592   -0.66805139377201
H           1.49210136286238   -1.01045726545613   -0.72974653597360
H           2.05741379257584   -2.27039422905567   -1.44301005412221
O          -1.28648908247161    0.13438891628187   -1.45405780413352
H          -0.29053204494993    0.38509284996842   -1.33217886745512
H          -1.32385902851287   -0.80953494733801   -0.93186880309294
H          -1.75434986860229    0.81850892687291   -0.84033708798611
