    19
        -40.91821038
S          -1.93526069972293   -0.38821869646692   -0.21687662362574
O          -1.10767063021650   -1.12775731748752   -1.15825737365566
O          -1.52300852085825   -0.67639120226014    1.16747603196954
O          -1.99844568125075    1.02299527391677   -0.49622082826481
O          -3.39720429169898   -0.96748386031443   -0.34226791593752
H          -3.27769444863295   -1.88085522459079   -0.10040804296068
O           0.49402366858988    0.55079475986761    1.86466075060654
H          -0.40691323689935    0.00531160053967    1.65934963873543
H           1.25358929020398   -0.06767088049083    1.60525572948172
O           1.24310105854194   -0.17486420205838   -1.52388030221818
H           1.50586854401270   -0.41556846023931   -2.41386466989941
H           0.32908698354102   -0.56578907364391   -1.40280170194341
O           2.38989853571150   -0.83811232030973    0.80264336160232
H           2.04863722482270   -0.72105853553235   -0.11177429560371
H           3.26645055082389   -0.44988287946803    0.82822452769582
O           0.37454728980301    2.03694020591423   -0.14877012465319
H          -0.58367848613122    1.87928544055838   -0.32884878787295
H           0.48663012584370    1.29631508114174    1.11616770650688
H           0.83804273343257    1.48201028087509   -0.79980705990174
