    19
        -40.91864566
S          -0.56352041319900   -0.88825050412591   -0.53436206419540
O          -0.68104910632766   -1.24421293634022   -1.90526916242089
O          -1.35154609396071    0.23428588331233   -0.08240536409227
O          -0.81953210989939   -2.08094900377658    0.38568684735001
O           0.93829458121934   -0.55236847821335   -0.23462450926236
H           1.30044987796062   -0.13658017827878   -1.10632381561061
O           1.41735156296248    0.47811264974253   -2.47524040846783
H           0.84709866455967    1.26933049457037   -2.34898226968840
H           0.86689635713642   -0.15827908852285   -2.94944287932100
O           1.21722620858202   -0.01924178084324    2.45661846008805
H           1.25733005761824   -0.12558669962387    1.49245086574625
H           1.90491787211684   -0.57724275343981    2.82525110376780
O          -0.43959772480346    2.20847097073889   -1.66586455648872
H          -0.33043280606504    2.99186945615261   -1.12298525303616
H          -0.92232456124834    1.55761303907210   -1.12256011006483
O          -1.36158577972644   -0.75816837721500    2.46709471788013
H          -1.74535418577624   -0.06396275527964    1.91443691462464
H          -1.07178493057181   -1.69375382014132    1.30331785462432
H          -0.46283746059021   -0.44108610768422    2.70320363853218
