    19
        -40.91905000
S          -0.77551787621816   -0.64702272187029    0.58394273475504
O          -1.00329355052226    0.01047376275320   -0.79081827323456
O           0.23560514283324   -1.66078042830031    0.41719890575793
O          -0.52023181132178    0.35211645826362    1.56900903607238
O          -2.13110844997067   -1.33298580677194    0.88528519338429
H          -2.21541594587489   -2.04080042441333    0.19914171880278
O           2.26686766342559    0.03776948058832    1.05911509569008
H           1.71556669604077   -0.70936788264617    0.77663043288042
H           1.86584685620216    0.34581627934006    1.87666133102280
O          -1.59712577502406   -2.87791109939893   -1.14308503203836
H          -0.70654645937356   -2.78991046711127   -0.76730078199970
H          -1.62460727325687   -2.30624871766353   -1.91524930120194
O           1.95715552848557    2.12614636153564   -0.60274235581429
H           2.16598858391845    1.38721128079200    0.01205674979167
H           2.32087776425272    1.88142308952080   -1.45482250037612
O          -0.64206349777224    2.41729405817175   -0.26475797547085
H           0.33096513786388    2.47280217807472   -0.44774026642924
H          -0.92739076254706    1.05192376175872   -0.68126581179960
H          -0.71557196074886    2.28205084761523    0.68874110033569
