    19
        -40.92003351
S          -0.64051360180510   -0.49537770056919    0.34390999231826
O          -0.58421443546124    0.12631749803767   -0.95794004845109
O           0.51021337029681   -0.19949185991214    1.15929487911298
O          -1.92906041661220   -0.10646907278123    1.07173411153527
O          -0.81418653786239   -2.00739075641370    0.18311747479474
H          -0.33140284446296   -2.26571798380005   -0.68556842246693
O           0.56074365122006   -2.22409597342625   -1.92337959135522
H           1.41463208157877   -2.01225993322232   -1.48334640272930
H           0.24254013170972   -1.38875107898928   -2.28665160190430
O           2.46119143858962   -1.37791247363188   -0.24906676502342
H           2.95101444377803   -1.97955744624194    0.31529612150600
H           1.85350098472429   -0.88434806420434    0.33492265158894
O           0.44797685485143    2.40324013890490    0.04261997632828
H           1.04237628051840    1.96569558921142    0.66047986717309
H           0.16573576362856    1.70264866076611   -0.57105563391822
O          -1.87838500161668    2.42879430593377    1.26867491080381
H          -1.96395789803967    0.90144144692807    1.23568703259502
H          -0.98497822649145    2.59455242857427    0.86791507390634
H          -2.52322604854505    2.81868227482929    0.67335637418758
