    19
        -40.91832164
S          -0.59979082901525   -0.77040830459735    0.99365609215530
O          -1.46310322089779   -1.36558974880679    1.95963808245872
O          -0.02214616238502    0.52922825738563    1.57864321879069
O           0.45655440254391   -1.56375638126803    0.43836830312975
O          -1.46185061155060   -0.26203536162673   -0.21321979283553
H          -2.19503782729432    0.24297744295934    0.21762710747021
O           1.79328263022099    1.14325884685137   -1.95356993573041
H           1.25908985307840    0.34112740845380   -2.16325234112833
H           2.52058180540437    1.15670390403504   -2.57805266036603
O           0.38242202622581   -1.10380930510479   -2.22941292908257
H           0.47130421398327   -1.43736614537640   -1.31875065316236
H          -0.54853996572832   -0.88836489264147   -2.32609857509174
O          -2.99040098305486    0.80912284021777    1.59484297313789
H          -2.75394940750094   -0.01484181222895    2.05265253043050
H          -2.49144762990992    1.50937698626051    2.02423172439326
O           2.26833194795031    0.54189570725876    0.57087807962809
H           2.14755395080048    0.89586323355851   -0.34883039876027
H           0.94553990564194    0.65579672090066    1.21664782140821
H           2.28160589149064   -0.41917940624363    0.48400134317709
