    19
        -40.91003800
S           0.16490252585736   -1.47328586533288   -0.15866875289181
O           1.03883163655544   -0.80379396328767   -1.07340911655242
O           0.92208076836087   -1.87477800557475    1.10401111651193
O          -1.06228280292814   -0.81316210917945    0.15304013882491
O          -0.19449018303450   -2.87368746911053   -0.76946579648862
H           0.60133264604697   -3.20504306055365   -1.17999605460062
O          -1.24675397301259    2.11421960972964    0.08923251534366
H          -1.56669126149290    1.88797337013193   -0.79921800621855
H          -1.43176696538963    1.33400354227268    0.62248064816489
O          -2.19134426957455    0.49722250620448   -1.96632587199847
H          -1.80331535307703   -0.08469332919708   -1.29242880336105
H          -3.11775619333573    0.25883115281100   -2.03445504304617
O           1.38648284994192    1.65164962505410    0.06354156491209
H           1.37950767587279    0.91793394242129   -0.57144102678213
H           0.47429809215677    2.02298435315867    0.04781341706047
O           1.53463531438266    0.26855952381029    2.20592098544233
H           1.17212104128676   -1.00343031315528    1.63598615464805
H           2.44696794557406    0.26624990455526    2.50590683756047
H           1.49324051609291    0.91224662548216    1.41747508396464
