    19
        -40.91892620
S          -0.44995901123618    0.66475786083886    1.18888268266781
O           0.39564249148711    1.82733953074677    1.35463318173553
O          -1.23681493693282    0.74697459185000   -0.05576537597120
O           0.23818658103702   -0.59897441474594    1.28160927376709
O          -1.51209484290424    0.69435211111918    2.36001254795084
H          -1.74219299676641    1.61455616395592    2.44889439789891
O          -1.71433920928440   -2.03331261268740    0.08736310476421
H          -1.16110928538544   -1.64126955327641    0.78362785727015
H          -2.22022048883317   -1.29599084559068   -0.26650133378834
O           0.74245275742855   -2.10636053155840   -0.96155781684511
H          -0.18848014161871   -2.37865433938813   -0.79639483072641
H           1.05177786293167   -1.83306367032541   -0.08323748920966
O           2.10855185463710    1.57922752600924   -0.58295153770814
H           1.55929849037952    1.69426468635810    0.23444057658839
H           2.36452694164297    2.46086479159032   -0.86265634669848
O           0.38767534825089    0.20450914002245   -1.85008710572111
H           1.17562017247620    0.74972839978463   -1.49020832844826
H           0.59008814928731   -0.81218909409149   -1.60114401437499
H          -0.38860974659335    0.46324027951035   -1.18895944319099
