    19
        -40.91106585
S           0.33200895888344   -1.58196985963503    0.70719277667924
O          -0.14152426523873   -2.60039344610590   -0.17176223681138
O           1.34316367667732   -0.69659899596179   -0.03647216344992
O          -0.63427675219155   -0.77426749335842    1.38188825852215
O           1.23430877842257   -2.24025437262536    1.81342890441309
H           1.66578395629309   -3.00228023882524    1.43127131029024
O          -1.78047960123932    0.39097040558927   -0.88981254064609
H          -1.59103633889431    1.34276965415930   -0.73403469331550
H          -1.69345406697386   -0.03301703225020   -0.02564238166917
O           0.73832513184106    1.58247297338881    1.56317986695016
H           0.14355443530907    0.84305841552103    1.76392580588404
H           1.46504346796227    1.19079790684366    1.06968869601949
O          -0.85223554842023    2.82601648731381   -0.24507759894453
H          -0.29127573067469    3.34684381157495   -0.82129374023838
H          -0.29079563876927    2.52246354513934    0.49887816909022
O           0.15636354398361   -0.67774884141113   -2.19646948369579
H           0.95042366066906   -0.62996755594414   -1.03255023202643
H          -0.09181079406016   -1.60878404542692   -2.23150942054307
H          -0.66208686369437   -0.20011131814523   -1.84482929659473
