    19
        -40.91908960
S          -0.10662861339963   -0.82651859598929    0.86928859547574
O           0.22287893799613    0.36551740757769    1.62692785117946
O          -1.00753307215929   -0.45652406404061   -0.26296576975616
O           1.05335772424806   -1.53407214314063    0.38543241719293
O          -0.92245801417081   -1.79416163549201    1.76899129467481
H          -1.77863398007052   -1.33381741128181    1.89255768527969
O           2.17952274065090   -0.85092185164404   -1.84424313175126
H           1.79585028417204   -1.27268476658266   -1.03110588469856
H           3.05609987700016   -0.54898024716111   -1.59483612099568
O           1.25379679677865    2.19971477419527    0.16215043332065
H           0.94264266465736    1.51320101824553    0.82117124990939
H           0.84821356056722    3.02565305921427    0.43439353523190
O          -3.10919445492368   -0.38216358779884    1.33514740113177
H          -2.50466066260566   -0.21312317900043    0.58761326380246
H          -3.84441241558551   -0.89136025057453    0.98592067993947
O           0.36284172032024    0.89921611941313   -1.80765317221763
H           0.74448454864130    1.55731180886423   -1.10511408456271
H           1.13167475920413    0.22744191278524   -1.99336961316500
H          -0.31784239045121    0.31627166095621   -1.23030663911621
