    19
        -40.91892662
S          -0.66432888614957    0.73491810218276    1.03720558212706
O          -1.25969255873022    0.63211503591093   -0.27211874135918
O          -1.13698329890865   -0.24200651926880    1.99445871857331
O           0.80806266648901    0.73089244895446    0.94988309700749
O          -1.04681545982347    2.16116751697075    1.60259458937723
H          -0.87853589553055    2.09956071058619    2.53835706478366
O          -0.50292063088639   -2.50068773133177    0.87905333912431
H          -0.31586271562420   -3.13081516031526    1.57832917793790
H          -0.86472443650058   -1.69092311896825    1.32243407370184
O           0.64328902508067    2.08470438678117   -1.52206182629985
H          -0.19522437925608    1.85525585679709   -1.08755430872995
H           1.29417606925779    2.07828303429533   -0.81411203804989
O           0.15622437548761   -0.39396691036225   -2.39314645577456
H           0.50047486554513    0.52773163229210   -2.40653887037437
H          -0.71101850982006   -0.29961760704696   -1.96780310249170
O           1.34177315552767   -1.29236472753472   -0.38277469305117
H           0.91242497315377   -1.00440910052362   -1.31547412218203
H           1.24963789095283   -0.42273783011015    0.20154973263229
H           0.67004376973191   -1.92709999930951    0.05771876297407
