    19
        -40.92136397
S          -0.15452483489736   -1.08644552993136   -0.84808110541105
O          -1.25337160819716   -1.17079287643205   -1.77776246956669
O           0.72473210215906    0.03994780491047   -1.06622558871059
O          -0.60370974321772   -1.13666138103308    0.55455542111855
O           0.72467498846646   -2.39381969366544   -1.04545854880183
H           0.10224568430105   -3.05031409776297   -1.34514742194771
O          -1.77419777037380    1.38496182412807   -1.40208723509279
H          -1.04286916878725    1.78441171755679   -1.88134138944426
H          -1.74615807415525    0.42968689899554   -1.63702882502980
O           1.74328027987520   -0.79688823904799    1.81291213221825
H           0.87516777878615   -1.06505360341045    1.45700160400317
H           2.39820290752333   -1.28176604723957    1.30800416204336
O           1.22034300224773    1.66310359525652    0.93062488524823
H           1.23997915465666    1.22809954435060    0.04766602891795
H           1.58449029069015    0.96570316958903    1.51930755551206
O          -1.21605271133592    1.23793861226492    1.08347200663688
H          -0.17376203129684    1.56930613759918    1.11788411660173
H          -1.55254564235584    1.45927647208427    0.14187060121205
H          -1.09592460374345    0.21930569175004    1.02983407027359
