    19
        -40.92025497
S           0.82549317014394    0.06622375820022    0.37568686067011
O           0.10892707980494    0.92572076324433    1.31586424103717
O           0.03656970084058   -1.10795890637402    0.03638875865555
O           1.21782339918138    0.78829448777714   -0.83865655142899
O           2.15256482752986   -0.38723806569801    1.04738261241786
H           1.94717472250767   -0.48600086386945    2.00483906595086
O          -0.62648986581398   -1.57809488288482   -2.42550447765557
H          -0.38861557105648   -1.56094643757942   -1.46093286906322
H           0.13022113127672   -1.95147222212269   -2.88147965085027
O          -2.10097939175281    0.83093985958764   -0.09720627521582
H          -1.35865290123586    0.99842518447986    0.52916045845932
H          -2.32080385840372   -0.09828900289684    0.02191298381196
O           1.15168478394527   -0.15989720992987    3.46510605207595
H           1.57307923384550    0.49130127841391    4.03096479812902
H           0.54069168326256    0.33140156572795    2.87981842517482
O          -0.78084192003209    0.94226735664338   -2.26093851861259
H          -1.45604141340216    1.01290278700851   -1.48345878844535
H           0.15193541952547    0.99360363676170   -1.72723144648300
H          -0.80374023038905   -0.05118308575951   -2.53171568892537
