    19
        -40.92044768
S          -1.23597914106883    0.46078428793221   -0.89946150394568
O          -0.65370216908677   -0.70027980451281   -1.56813337661407
O          -2.00375260430237    0.07545616047190    0.26869617081629
O          -0.22850309992357    1.46972338205447   -0.61994436247824
O          -2.25744533551890    1.12495748822740   -1.90994218728090
H          -3.05445070977850    0.61811764273634   -1.78753686633009
O           1.85125821935627   -0.20675205015865   -1.20312207163546
H           1.78581744147369    0.75456051817183   -1.23854444010415
H           0.94977931040202   -0.50158445615643   -1.49932857041138
O           0.59291828134607    1.43513806338976    1.83077604531208
H           0.15068217531987    1.53727240191473    0.94777079848127
H           1.10921690816284    2.23036890082603    1.97535177922996
O          -0.58791522492375   -2.01743800313965    0.80927368926014
H          -1.23413728946977   -1.26516639166716    0.81027235962901
H          -0.53178547163481   -2.24726111255413   -0.12808121037706
O           1.57501866531524   -0.82083428683244    1.22412956633193
H           1.25254459725037    0.07396731840770    1.61153656027275
H           0.69948239508143   -1.41123431489791    1.15145217716530
H           1.82095306199884   -0.60979575421089    0.22483545268205
