    19
        -40.91899955
S          -0.99240753192650    0.66140299343390   -0.24402550945031
O          -0.25398985708550    1.64055944744579   -1.00825495964330
O          -1.21236133984773   -0.57753041761417   -0.96023052558717
O          -0.29450995664744    0.37635354309748    1.04556353248497
O          -2.35970073746229    1.29020501319514    0.13755278610130
H          -2.72147535772758    0.66658419468059    0.80147304924455
O           0.77676513522846   -2.20990440655745   -1.08831995339586
H           1.06065815495337   -2.18739393104800   -2.00498693895398
H          -0.08065162174750   -1.70154147455082   -1.05531061906525
O           2.27679696266651    1.23360367782703   -1.28296297844978
H           2.71800885686708    2.05636755571730   -1.06194268315965
H           1.30276512605414    1.44373442302876   -1.30601169650995
O          -2.57458092195428   -0.40199646537174    2.14464144943381
H          -1.62167047894944   -0.32451987556439    1.95154057087501
H          -2.71419604115473   -0.01725437178398    3.01314291880357
O           1.90685446265763   -0.57077883045948    0.45104378034708
H           2.22243291723262    0.14728922701071   -0.21809186155405
H           0.99197281179606   -0.16597834180311    0.82483442824814
H           1.56928939704331   -1.35920195068751   -0.13965477978331
