    19
        -40.91966064
S          -1.25085121019769    0.81113525616362   -0.84261588039308
O          -1.07704341734076    1.74685480964289    0.27902201022385
O          -0.16177753888699    0.94398795783719   -1.79781476774303
O          -1.44378187167786   -0.54219765946806   -0.38377030453407
O          -2.56931489934709    1.25700821046271   -1.57798206744397
H          -2.36811485646737    2.14438851179191   -1.85886511536057
O           0.73270239131907   -2.23636136882711   -0.34440301503220
H           1.44619293093648   -1.62475284264928   -0.55963688095275
H          -0.08014080301169   -1.81615550993171   -0.67007810968737
O          -0.37467687167496   -1.48533353453965    1.93241759168446
H           0.16002282075854   -2.01689476436879    1.29360176013077
H          -1.17399435847624   -1.27869033895804    1.42035658107172
O           1.98315006874025    0.31514732183693   -0.54769270432389
H           2.70828516905282    0.86426488759411   -0.85179662747994
H           1.19334332108696    0.55206433118141   -1.11574230532620
O           0.70943840471766    0.74420295452012    1.65444507071121
H           1.36454593308849    0.57069206246226    0.90499217654674
H          -0.07957957896174    1.26140739748143    1.16359808736471
H           0.28159435630826   -0.21076767222534    1.90196451054142
