    19
        -40.92175602
S           0.36446711547926   -0.29349745018014   -0.94164194682615
O           0.75357817814523    1.00587420919742   -0.18144353870479
O          -0.54878203147410   -1.04575425858030   -0.11233789698771
O          -0.13481986295002    0.01978646931067   -2.24190311389336
O           1.70670286566929   -1.00829675718819   -1.04012992168301
H           2.16705460564626   -0.93673670438370   -0.12482920175346
O           2.62609999007853   -0.65367196511244    1.29058544251412
H           1.87229132013003   -0.99785904817191    1.83299499675452
H           2.58209819183105    0.30477408830105    1.35459760640621
O           0.35822134211786   -1.49080839743427    2.33780631521582
H          -0.10321453319045   -1.32558739562924    1.48845371668801
H           0.21820325694737   -2.41640455345235    2.54622976303477
O          -2.65326700949893    0.31177309811028   -1.32895809675242
H          -2.50141891252675   -0.38253744647290   -0.67781823175547
H          -1.95460787581237    0.17439270399161   -1.98966191330014
O          -1.37781729696922    2.39356907401376   -0.33864152206267
H          -0.05282661112026    1.62217079552257   -0.17111551608607
H          -1.31067556469611    3.02603424338919   -1.05804976705251
H          -2.01128715841994    1.69277929500329   -0.64413717401198
