    19
        -40.91617701
S          -1.71992886626867   -0.11835320260265   -0.96299304036556
O          -1.17351549489352   -1.53093366894168   -0.84691241848249
O          -2.23109127144955    0.31261751221499    0.31604680459159
O          -0.80277846490197    0.77193946109980   -1.58922664130607
O          -2.94409180647272   -0.32596968078034   -1.92025057226488
H          -3.57498220182055   -0.84749718820939   -1.42934407744522
O          -0.16610777229547    0.85752655159217    1.84312874605832
H          -0.42977387761168    1.07395188660029    2.73962081125211
H          -0.99561951841950    0.76035770331280    1.32299126816336
O           0.64796771056307   -1.52283254397921    0.82056905840826
H          -0.36679880285591   -1.58979540718192   -0.12714003038677
H           0.45052219245542   -0.71744168417982    1.34035843387957
O           1.43141580311174    1.72257400114601   -0.33084581103840
H           0.71469576650104    1.56272528336396   -0.96540508579640
H           1.01199687341274    1.66323919562255    0.53838363611570
O           2.72967164289769   -0.58644949084647   -0.46807094780587
H           3.59226586193287   -0.49659022047353   -0.06040900296534
H           1.47598020186500   -1.31394906343468    0.30897362585891
H           2.35017201424533    0.32488054572894   -0.52947473641150
