    19
        -40.91286543
S          -0.67051623830114   -1.64950019905048    0.37626635011193
O          -0.85306389344827   -0.85044901717963    1.55437600682514
O          -1.30544695611588   -1.18819005177071   -0.81333840281060
O           0.80952856629684   -1.92602776278920    0.14916170284225
O          -1.21843486121272   -3.08942932557553    0.68267872436824
H          -0.92337300757633   -3.29025972680344    1.56754029288174
O          -0.28922218206811    0.64747622491392   -2.49992042639101
H          -0.66235026853431   -0.07933345164202   -1.96775711636561
H          -1.03626751261850    1.06880743208564   -2.92927096773422
O           0.84428065730680    1.99239627503906   -0.45889091686781
H           0.49724571533787    1.61091008877249   -1.29227793537969
H           0.06728897269368    2.07084928348777    0.13318524752421
O          -1.24473674169936    1.79504991679307    1.22970918806006
H          -1.14124827881581    2.17846302487404    2.10274017508370
H          -1.19623946285251    0.82830832705145    1.35125728735525
O           2.22912787602566    0.07317292143925    0.47425687840331
H           1.69913977444144    0.88612112396578    0.14189018782570
H           1.41581242631570   -1.06554636866537    0.31879354333680
H           2.97847542483476   -0.01281872500117   -0.12039980912474
