    19
        -40.92159003
S          -1.00774792496471    0.08316184135926    1.07555733305977
O          -2.40135051260257    0.02582721631320    0.72725956221530
O          -0.31511174022618   -1.18715979141853    0.82289524155047
O          -0.26998080480201    1.19302553770901    0.49114962416333
O          -0.93129614874700    0.32000205174404    2.64066918494215
H          -1.67257122620923   -0.16788126071791    2.98632343105289
O           0.28028147907615    0.49690201509205   -2.02498395297116
H           0.02156235321307    1.05849736810451   -1.26783194153753
H          -0.50887745339131   -0.07937861063423   -2.16143656157183
O          -1.82013504327442   -1.05656191891424   -1.63525331774536
H          -2.20633397272102   -0.63022059854058   -0.84532555515766
H          -1.58159479528018   -1.94303707633369   -1.35419920355646
O           2.31798173993358    1.15733099643283    0.88623036021223
H           2.69884727003062    1.96035456397051    0.52512058360756
H           1.34205662031767    1.29648722904675    0.91718344219731
O           1.72987477490526   -0.88108478625804   -0.54152368455126
H           0.91367130986721   -1.14267501488376    0.07300416647286
H           1.22105410057536   -0.34576232026269   -1.31805598863253
H           2.18966996538966   -0.15782742233706    0.00321727599991
