    19
        -40.91188302
S          -0.16860214271687   -0.84716478578167   -1.51421346732120
O          -1.38707587769130   -1.58809800709468   -1.54279034482609
O          -0.25534527921947    0.58042569680644   -1.49437410710251
O           0.71058964691360   -1.34313636690000   -0.36279966214649
O           0.69253380523945   -1.23156266569797   -2.77244554362544
H           0.51927038394220   -2.14675560586687   -2.98531869003863
O          -1.54295779809685    0.80193953988588    0.97746536065290
H          -0.85967625171317    1.29243566396830    1.48939438561351
H          -1.30584432207785    0.92191088166669    0.04814386793418
O           0.56735627409629    2.09432619512956    2.00947773098023
H           1.19942006779003    1.83448666237486    1.30493538798138
H           0.55606856736733    3.05251991434526    2.02301327609687
O           1.99832165055662    1.23583412051251   -0.11361778175788
H           1.25215558680821    1.17470446766224   -0.73257764058030
H           2.25913142857501    0.32812637366551    0.06378949482833
O          -1.12015487544653   -1.72483018890232    1.23812192541478
H           0.01507862787070   -1.58176878775348    0.42538081106637
H          -1.37198952002229   -0.75116298725309    1.31763738360270
H          -1.75827998216547   -2.10223011086817    0.62077763320399
