    19
        -40.91885153
S           0.11588627701542    1.22163851318085   -0.03884524070329
O          -1.01031614108633    0.26091629952235   -0.25379059551026
O           0.80416625288557    0.88194478154476    1.18871949844995
O           0.96931374586916    1.26123963803149   -1.20033773246727
O          -0.54542891214741    2.62043617431315    0.11661795480415
H          -1.22616692411855    2.47688947555726    0.80464404853915
O           1.37312574555771   -1.60899039106372    1.50514734338878
H           1.00489228108687   -1.85656646823130    2.35598345424172
H           1.28173860346767   -0.61720960654194    1.44416885055008
O          -2.48408793649478    1.51992526963176    1.54066405285304
H          -2.11143948587039    0.83279384648405    0.95576940370154
H          -3.37043677152415    1.70451426944986    1.22133890190008
O           1.59405216512476   -0.98932773014948   -2.32076220954548
H           1.49765917524727   -0.07959245810993   -1.93274619999151
H           1.31328429764357   -0.91900390152843   -3.23560257549085
O           0.02674655938660   -1.95624519507627   -0.59371333824781
H           0.68733383132153   -1.72116985108979   -1.35483982482464
H           0.60144309402819   -1.98082334090420    0.27188682730145
H          -0.52176585846832   -1.05136932487569   -0.47430261889182
