    19
        -40.91974981
S          -0.15654192375368    0.80341756260693    0.19856596636750
O           0.63241706222005    0.31856369485947   -0.91524656357895
O          -0.74383856691077   -0.25142100156397    0.97751726184671
O           0.69743796235743    1.70568134484910    1.09211929966341
O          -1.21512096957409    1.78316454290670   -0.31452966380174
H          -1.86550607855234    1.32749701961694   -0.95585615452371
O           2.59562329990730   -0.90336760404845    0.47324833267931
H           1.94043668922666   -0.52800797250422   -0.14309152485116
H           3.45277140510313   -0.57768419691423    0.19083466028572
O          -2.66198092266710    0.48607766531270   -1.96010481077951
H          -2.46300686998159    0.74477048846322   -2.86326888730583
H          -2.26363304492091   -0.41312608980486   -1.82527669655554
O          -1.20468645030681   -1.62476266083632   -1.37770390511821
H          -0.36642745851115   -1.14695429794905   -1.47634548789186
H          -1.33069167502993   -1.68453584464545   -0.42254905305172
O           1.39312401513036   -0.08825006983560    2.72450460565228
H           0.54277244162971   -0.53973610157280    2.64784636817278
H           1.98575247549965   -0.53311388980746    2.08046220769563
H           1.03109858984824    1.12178739961456    1.86887404528121
