    19
        -40.91892632
S          -0.31121281106964    0.30050318385688   -1.36654566949672
O          -1.55998722962825    1.03165391707289   -1.35842750552083
O           0.75057559821226    1.04410468052896   -0.66299683098653
O          -0.40263402528334   -1.05350549053176   -0.87916494512435
O           0.16473123679956    0.21298078313775   -2.87218549422428
H          -0.04832477599269    1.06553711723766   -3.24018597053653
O          -2.22425205425617    0.99463602185056    1.15306164875192
H          -2.09395332887005    0.96837346848848    0.17056578012524
H          -2.70902796776406    1.80164720069720    1.33971443722114
O           0.58732506781572   -1.74355977943815    1.59205513980783
H          -0.09557131425781   -1.90563329245890    0.92199387347040
H           1.42251662070838   -1.77206303131967    1.07235148904166
O           2.24963174027913   -1.33920411935266   -0.45990704685031
H           1.37884586868045   -1.40058868107201   -0.88707444042790
H           2.49044805629226   -0.41075270129180   -0.53013376881924
O           0.23307197098245    0.72750063814427    1.74239086995844
H           0.39964810899692   -0.32291200802158    1.82032161671413
H           0.54910057605915    0.94830453518690    0.76383741286810
H          -0.78093132756137    0.85297753710527    1.68032942398163
