    19
        -40.92048095
S          -1.55760296701978   -0.19121811924521    0.33732182559852
O          -1.06468944104627   -0.40727561522142    1.68041177912063
O          -1.45739680022884    1.18006315257197   -0.11905065252813
O          -0.91234898743177   -1.10656990891064   -0.61650438995263
O          -3.09427451756635   -0.56885977188011    0.35537468645430
H          -3.15779277961042   -1.20630748172311    1.06062866699745
O           1.46679743612131   -1.82346130330813    0.15150819355447
H           0.50505341014957   -1.66758427493363   -0.03148355963064
H           1.75383043372112   -2.50158022067405   -0.46371653130336
O           2.06722064439341    0.60392939857146   -0.27129600161978
H           1.99463136322220   -0.39764320165304   -0.05184144037437
H           1.54512915110574    1.09219730811886    0.51870687131899
O           0.57828268828882    1.60999512274244    1.46843881419038
H          -0.16789478753858    1.88256417725557    0.89716712803175
H           0.18919618885118    0.82841471051411    1.91475040763554
O           0.31814980804192    0.66287487391088   -2.08892471098975
H          -0.27164274537712    1.40518766201430   -1.90741380222030
H           1.44798539096056    0.71350560088801   -1.10785698464779
H          -0.18263345909593   -0.10823211909753   -1.72622029956423
