    19
        -40.92343503
S           1.34329408085890   -0.16510056399984    1.00672292340714
O           1.17046247968460   -0.87796772230781   -0.24906280766166
O           1.36561693980132    1.27172582351787    0.83259796102532
O           0.35476073535751   -0.57894996370283    2.00345779234757
O           2.74968962066336   -0.59744787256695    1.56975224651809
H           2.81790918619407   -0.09280222886607    2.37423079572750
O           0.06074998837993    0.51954305395532   -2.21445676770772
H           0.60027185266629    0.02794402882600   -1.55643922351130
H           0.68165406062962    0.98672332893231   -2.77504147785387
O          -1.24360833776441   -1.77883675600009   -0.94377025648271
H          -0.29893658383570   -1.72913596564304   -0.68825121209425
H          -1.30107996888762   -1.30867360126669   -1.78286684521186
O          -1.00616375333496    1.82519209028860   -0.12307433208557
H          -0.80916715099151    1.52318498007355   -1.03442160136996
H          -0.12241764164152    1.83649894857432    0.31594347775239
O          -1.87966987579455   -0.23370848006018    0.97629152878078
H          -1.65377471555468    0.71041649592197    0.52894241546950
H          -1.80911675284502   -0.92109100817611    0.21556001626245
H          -1.02047416356830   -0.41751457749758    1.54388536662581
