    19
        -40.92136496
S           0.60656812439962    0.85568689280819    0.17196816602922
O          -0.59982120414832    0.69712321407094   -0.79778685512833
O           0.74506863355329   -0.38749462261112    0.89107925401715
O           1.77153394910697    1.27514850471774   -0.53914300520701
O           0.13280528708703    1.97331979480457    1.09478698457450
H          -0.84239877035758    1.78153123725875    1.34520938122137
O           2.44622120790446   -0.53445317614204   -2.39349936941274
H           2.60232443909451   -0.06559574540066   -3.21574202209199
H           2.38188277437588    0.14759773391586   -1.69659549714225
O          -2.26494794812986    1.27290003216006    1.52139966826708
H          -2.59435076875278    1.19841437724297    0.62111216512385
H          -2.12283904287354    0.34706312079196    1.84120973125906
O          -1.44051579523835   -1.14962985525268    2.16211329800523
H          -1.22874521970557   -1.36542722838713    3.07222461853426
H          -0.58476080379480   -0.98343277189968    1.71070042140917
O           0.11962447024129   -1.57015888365125   -1.66037428332315
H           0.98452800914220   -1.33380723330653   -2.07286947976385
H           0.33848159578504   -1.95493979796933   -0.80528340546322
H          -0.45065894768792   -0.20384560315335   -1.25050977091145
