    19
        -40.92159000
S           0.07634081191293   -0.55562717280329    1.36543559338527
O          -0.28161940067939   -1.43062889921632    0.24132333226492
O           1.36640145282287   -0.87105744763560    1.91584204079266
O          -0.11818062976875    0.84156229694974    1.00814630841438
O          -0.99305787526971   -0.84040888384781    2.49976509064638
H          -0.64626036479075   -1.59708972522689    2.96235458088717
O          -2.35079104162744    1.38116420600999   -0.24826618536711
H          -1.62548954553700    1.23131484939290    0.40312816368796
H          -2.41525768162000    2.32997421105074   -0.37428445633389
O           1.08792566839088    1.19675380424996   -1.34522744574164
H           0.79367559580062    1.38260899366939   -0.43176189413177
H           1.78303867985811    0.50693975082047   -1.22484900065001
O           2.45312547838989   -0.90646234247220   -0.51479731478687
H           2.09567004190892   -1.73561285656984   -0.84107653322708
H           2.23595210685249   -0.88853632618241    0.43778781014826
O          -0.96734881666935   -0.14577502492318   -1.76271229889988
H          -0.08143242903193    0.45696427104535   -1.77027818156378
H          -0.73791320820880   -0.80791789953487   -0.97462592527740
H          -1.67477882265978    0.45183420508231   -1.34590369410669
