    19
        -40.91904990
S           0.99450399153973    0.49928065946330   -0.35627864837226
O           1.54155241962404   -0.25052891179016    0.74659833308815
O           0.12045089228050   -0.46355504736728   -1.18284510691695
O           0.25347002166860    1.67187138795703   -0.02488893534956
O           2.14061920362014    0.87206723233107   -1.32919107780491
H           2.63512016947434    0.02740320542058   -1.47380187433366
O           2.84635674658769   -1.63047887627396   -1.16905528405962
H           2.57461244255587   -1.48004654666671   -0.24959872024575
H           2.13346870238684   -2.12158025595246   -1.58668649590236
O          -2.73230157363714   -0.29906360839882    1.08051244213773
H          -1.97159436420837   -0.04961350232383    1.65214355031160
H          -2.84753662585521   -1.24525168103248    1.17883402122432
O          -0.50976283021210    0.40858150102541    2.41374176231593
H          -0.44910960766075    1.35427501253874    2.25186960086722
H           0.27953010199765    0.03234689845971    1.99258139878978
O          -2.05251670151455    0.75017275664615   -1.24069121157071
H          -0.82388870498194   -0.02495144950679   -1.32055572764161
H          -2.47000701513409    0.36282654905321   -0.42856968191137
H          -1.66296727379818    1.58624467418254   -0.95411832309709
