    19
        -40.90735523
S           1.00237934901128   -0.16262031183812    0.62853094656014
O           0.09421289646729    0.90990259988866    0.30346905090755
O           1.61550868291448   -0.09319394546581    1.91171082076288
O           0.24868821585491   -1.50420952082074    0.45032072704951
O           2.08147411949667   -0.27473918335716   -0.47157097436839
H           1.59872604153236   -0.21529989980733   -1.32778708164966
O          -0.68149413072970    1.37900837621296   -4.61834368780209
H          -0.04473154969336    2.04291170309820   -4.88682985899133
H          -0.32325658852171    0.95866816735872   -3.82561106197353
O          -0.67155460205190    0.91588897600771    2.98728937408723
H          -0.82445443878788    1.37385591469255    2.15240540235525
H           0.28081883371200    0.73857469246466    2.99511497995449
O           0.12909176143683    0.05317854219463   -2.20250161881736
H          -0.16169655016784    0.57676727957281   -1.43165308020713
H          -0.44215952651624   -0.71912399288296   -2.24436295490489
O          -1.30936504668808   -1.58682349277868    2.45554007192663
H          -0.93818139692074   -2.12219884088641    3.16124516148406
H          -1.23543790883969   -0.64208570555281    2.75044507384284
H          -0.41856815149828   -1.62846135810762    1.21258872977728
