    19
        -40.92136499
S           0.19980127330243   -0.08122616645396   -1.04056244664898
O           1.15976813474297   -0.33408355723090    0.15756036691464
O          -1.09635443030193    0.23632617742472   -0.49195870004784
O           0.74173403382979    0.90489906144374   -1.91954626870975
O           0.18458649281766   -1.43976223487576   -1.73292953842348
H           0.09533398624832   -2.16002753774174   -1.00920304694277
O          -0.00939648775484   -2.99994891955345    0.25456197005502
H           0.74525948087526   -2.71803119514801    0.77954119681382
H          -0.81031481806927   -2.62226911870458    0.69669745189801
O           1.07855480759416    3.23025201791075   -0.63601043298217
H           0.91089859460128    2.48741722795271   -1.24847833452340
H           1.96337097295453    3.54559635085283   -0.83079956321543
O          -2.04917898462387   -1.59206778242624    1.15806990763188
H          -2.94604297825787   -1.82085305559967    0.90707999486665
H          -1.78644242235214   -0.83667512488890    0.58885518066118
O           0.43552810442637    1.72028730892435    1.44486857937000
H          -0.51230373629439    1.60760961930383    1.31823127337678
H           0.99073211364310    0.44495891220862    0.79276120030286
H           0.70446584266161    2.42759800661365    0.81126122961521
