    19
        -40.91173154
S           1.77388364385272   -0.25780784879160   -0.42412283870093
O           1.55115764359785   -1.06769748749205   -1.58385672125567
O           0.83501794239919    0.94759602517203   -0.47120854842169
O           1.72059721920179   -0.87054402310442    0.85862488501858
O           3.20492128695765    0.39284231009279   -0.58638250751332
H           3.34632621941817    0.52947802102846   -1.52061580776162
O          -2.08754525881615    0.65398596019547    1.86456300989493
H          -2.14350604434956    0.47024417476316    0.89221773032347
H          -2.71965527817272    1.35228635663377    2.04255727455737
O          -0.95262679008268   -2.08334270778873   -1.41211370663736
H          -1.12857863079941   -2.65443060503440   -2.16226050865041
H          -0.02038559712701   -1.81159943223609   -1.48242249203464
O          -1.94982766952886    0.35127721870857   -0.76103809976851
H          -1.79536660292341   -0.58789866334723   -0.97780070524858
H          -1.10553728624377    0.78594591954227   -0.92903270135688
O           0.44505816133657    1.22732273047395    1.93061518536257
H          -0.53564351522234    1.02615103103007    2.02358337370005
H           0.91169647568536    0.39706693322507    2.11732410299988
H           0.65001407089776    1.19912409651813    0.58136905388555
