    19
        -40.91865317
S           0.00985821134373   -0.52685274877773   -0.85415783005747
O          -1.21218255524890   -0.52221436312066    0.06648896614124
O           0.19389307268894    0.81013210346915   -1.36889134274176
O           1.13006333091939   -1.10064436258797   -0.17855749238504
O          -0.39060478196822   -1.44761216448499   -2.03409043195176
H          -0.96569239949648   -0.90952687506879   -2.63715695406646
O           1.69377741327770    1.47851164497132    0.81231252652321
H           1.14819708272436    1.49170434367359    0.01101710258771
H           2.27725359641427    0.72233669979522    0.69874136460328
O          -1.54547025225039    0.47572442001938   -3.35188501434741
H          -1.17413379926075    0.69200535285509   -4.21096440055629
H          -1.02728335101188    0.96560481013887   -2.68802892859449
O           0.30787424891375    0.76549892550590    3.01216216237278
H           0.85925600902901    1.10744788999749    2.27446823791714
H          -0.42450086171886    1.37637972302632    3.10828888174622
O          -0.31563923774967   -1.63471088785582    2.10940381021696
H          -0.97284110356614   -1.03547295781299    0.94684597515475
H           0.50186970181672   -1.89541966018101    1.66551938996998
H          -0.09369434414723   -0.81289187492862    2.61848395928856
