    19
        -40.90863219
S           0.52296687293928    0.95326667653587    1.48479683305686
O          -0.15329137750829   -0.19410477365799    2.01517928527969
O           1.72804839039509    0.53004440895295    0.63717353216500
O          -0.28022817310576    1.89918908908359    0.78474750409085
O           1.23359489235641    1.67753199851649    2.67819190916228
H           1.61265860563178    0.98655694885906    3.21726126514353
O           0.59232455296088   -2.44691159066562   -1.01399156805238
H           0.94766135046835   -1.68890288997284   -1.48530452066386
H          -0.26673384034766   -2.16818509279132   -0.67132460036887
O          -1.75172788447493   -1.32513889269595    0.19723226315477
H          -1.20761203812134   -0.96896877382377    0.92741432549705
H          -2.35275281765884   -1.96264637506383    0.58693176028883
O          -1.47551768991441    0.86029474694464   -1.43084453770415
H          -1.80938706339919    0.04158891118510   -1.02789686156024
H          -1.30812333008750    1.46181028434989   -0.68815706790600
O           1.02940822576058    0.34870210326566   -1.78693817338545
H           0.03589267070273    0.52479496011835   -1.76781443019800
H           1.42372096330530    1.05430573662870   -2.30415285293188
H           1.47909767014171    0.41677251412460   -0.35250409507843
