    19
        -40.92218958
S          -0.39147312295388   -0.79546034245735   -0.74418171763410
O          -1.46075253991360   -0.21141114062785    0.05910988536175
O           0.39554117314710    0.24279599605945   -1.40188679946817
O           0.45536885581914   -1.67936235598758    0.05682519726073
O          -1.03905537403775   -1.68636777983236   -1.84414523380943
H          -1.58631978265120   -1.04119232764203   -2.33844766983477
O          -0.72652844024669    0.49061242727340    2.44480854754258
H          -1.26557402566882   -0.01669436357061    3.05553501186459
H          -1.08900242293539    0.30361938574061    1.53721412398022
O          -2.09348061585438    0.64409856408500   -2.46145272185927
H          -2.36536876063553    0.67624455808077   -1.53469364278692
H          -1.18089300783371    0.96220196915586   -2.46186314614830
O           2.28628787415908    1.22952681129659    0.07248289095563
H           3.10963393379480    1.05663105219266   -0.38923795180079
H           1.55931250969418    0.95262855103242   -0.54805144147771
O           1.56041532297837   -0.40154274234707    1.85689041371349
H           1.15687469728197   -1.07082106772910    1.13626847847444
H           1.97437423512126    0.32843893533781    1.25075982736655
H           0.70063950073118    0.01605386993965    2.25406594830127
