    19
        -40.92136500
S          -0.18036138444032   -0.20413097005904    1.02715594223844
O           0.46506857118394    0.99303835204003    0.54547235738690
O          -0.59237704044857   -1.04057226257186   -0.21847203858983
O           0.60120371522532   -0.99194168492295    1.92563595232616
O          -1.53008746833554    0.11693726272964    1.65989005720318
H          -2.16980293130449    0.39717597866301    0.90972482325693
O          -2.89385709026714    0.73666036359765   -0.38414445574797
H          -2.77328490572796   -0.04829034400134   -0.92628229016480
H          -2.31364452924089    1.43573221795607   -0.77690498412306
O          -0.99533819003560    2.40368736313591   -1.14294592046619
H          -0.35490197500628    1.95116640897981   -0.55241030119441
H          -1.01648382047530    3.32169714716134   -0.86632300625085
O           2.84254223760873   -1.84026059572133    0.73195536810579
H           2.92745389099562   -2.78008305188262    0.90464350015124
H           2.13032564962968   -1.51681756355889    1.31776386815861
O           1.63935530822456   -0.79424777448846   -1.38501301322965
H           0.23637608778975   -1.04544832208604   -0.81184368496284
H           1.74946991489442    0.14888119918582   -1.22530721583635
H           2.22834396973594   -1.24318372416868   -0.73259495826154
