    19
        -40.91930881
S           0.74496670372252    0.41320523887656   -0.21389647451429
O           2.22683435203617    0.77919400831210    0.05989701079106
O          -0.06184410603477    1.55872957735768    0.04767316292952
O           0.65655102580725   -0.16272409385061   -1.53366846418274
O           0.43592674139249   -0.69275433799571    0.80336122744603
H          -0.17868817350606   -0.33646616613266    1.56979086655920
O          -1.11311005569263    0.28786054379962    2.50948402255102
H          -1.86274084380425    0.53244779266616    1.88628522071196
H          -0.72311274203232    1.12200761800253    2.78297789356893
O          -1.86105067016479   -1.06804122717320   -0.95165880066986
H          -1.62217319640090   -1.82649936812686   -0.41384972659206
H          -1.04196831112414   -0.76316896947072   -1.36911152283911
O          -2.70835656038908    1.01947608506148    0.59304168065677
H          -2.69284218485339    0.24721550285327   -0.00191112319666
H          -2.01631309635676    1.60117366973855    0.24935260040866
O           3.15198652122907   -1.05369083790642   -1.53516406980403
H           2.21501783396937   -1.00282266032650   -1.79931642979827
H           3.67062342599353   -0.75086749132167   -2.28477900920723
H           2.78029332620804    0.09572509563256   -0.39850807483370
