    19
        -40.92071443
S          -0.96063862844821    1.08783543820323   -0.30155574765568
O          -1.26202406094447   -0.35578543432222   -0.37227897356434
O          -1.61524307187064    1.71459716860756    0.82364911621191
O           0.46592139429414    1.31041147135524   -0.35276350419359
O          -1.58976526202721    1.71967552409067   -1.60599413017732
H          -2.48209984598011    1.93353917166801   -1.34885968424754
O           0.34947900066760   -1.27260313413230    1.32983721713602
H           1.21040244879258   -1.16693673602032    0.65514889394258
H          -0.42306914535544   -1.04652764078805    0.69305998030160
O           2.05900445822273   -0.77884145557024   -0.39044760994681
H           1.70154409521540    0.13400923737924   -0.48655697936401
H           1.68325176284376   -1.25498786864143   -1.16097702345085
O           0.25938547507299   -1.70206392128468   -2.12427757691466
H          -0.39372727662400   -1.18078740889427   -1.61642288847763
H          -0.15626485582742   -2.54190392756984   -2.32491198341590
O           0.28055639348640    0.99258765792794    2.47828811706322
H           0.37978468809464   -0.44986569196374    1.94873380485882
H           1.01253801801273    1.51512177829533    2.13757361539150
H          -0.51903559760613    1.34252578167497    2.01875534651233
