    19
        -40.91898047
S           0.39404401339483    0.73214847537503   -1.40597043673444
O           0.41308875307032   -0.70870935386996   -1.21003480505817
O          -0.75244643363186    1.21412336251458   -2.13058989812913
O           0.57266795409564    1.42077419344004   -0.11578772151534
O           1.68033005355886    1.08408300293172   -2.25916461781035
H           1.45860559055501    1.88381979634970   -2.72885190383338
O          -2.19341821278208   -0.54967118412244   -0.74316279087139
H          -1.36523210548138   -1.02047853882504   -0.95195666676502
H          -2.18663044531982    0.17438171965769   -1.39243837127171
O           0.00825692315956   -1.23660993516712    2.43135143814684
H           0.87442150980904   -1.11285125968705    1.94759905380334
H          -0.30074232568004   -2.11823659696411    2.21291439805924
O           2.04503041498980   -0.76844288791046    0.86908656180649
H           2.21383695352377    0.17772155057565    0.91240354668926
H           1.56164025101367   -0.89228493374256    0.02585218816798
O          -1.28670202613536    0.62123250969098    1.31506963459316
H          -1.81774805670296    0.14267906827158    0.56678426615930
H          -0.81974548999190   -0.12610866100026    1.87477809597075
H          -0.49925733132584    1.08242967242174    0.78211802870767
