    19
        -40.91579439
S           0.34935789612309    0.86472958470368    1.26998168444223
O          -0.56562973847387    0.94609830257583    2.35289155949822
O           1.51640815726639    1.69119676395569    1.24454079498083
O           0.79327955455929   -0.59726644338919    1.06077038070805
O          -0.47618315911600    1.17194424685016   -0.04248039432628
H           0.18708009803633    1.28011161248355   -0.75893781529482
O           1.78914241419815    1.44341559421883   -1.36564378718564
H           2.06271583210265    2.25100469891859   -1.80732782407058
H           2.02085173998056    1.55116175174732   -0.42002120995421
O          -2.05790353373869   -1.03692477185289   -0.83694757298796
H          -1.24209759314442   -1.27192816458121   -1.31513947249697
H          -2.03863360570193   -0.07726942369874   -0.76195100311894
O           0.57657442973000   -1.18804715411382   -1.69070166013026
H           1.07778986630089   -0.44134036113207   -2.03367619489288
H           0.91817784279768   -1.34319559520495   -0.80196309834837
O          -1.38580528909420   -1.63815919017771    1.64205160835178
H          -1.81049886061002   -1.54821312632130    0.74752993676926
H          -0.04165975455898   -1.16964923717088    1.33911090257847
H          -1.67296628677830   -0.88766908771961    2.17791317549046
