    19
        -40.91483134
S           1.11547847473386   -0.14465598050290   -0.96577294075357
O           2.35090923675873    0.40391200566151   -0.26627343786592
O           0.65712859601081   -1.33869861568598   -0.30439059034141
O           0.14791658586748    0.87917116362934   -1.17248262804580
O           1.68302477983120   -0.57714210298089   -2.36159376016449
H           2.23848924363990   -1.34264788172049   -2.22687554152984
O          -0.26995636140571    0.17070473644694    1.85583890371499
H          -1.12710200999047    0.39664290324227    1.41531162574924
H           0.08929260950938   -0.56660495573862    1.34785572089710
O          -2.00026593747031   -2.01452789182324   -0.44929625975383
H          -1.03968049805361   -1.87168102526360   -0.46241495684941
H          -2.16873445365652   -2.68226565008589    0.21844997507473
O          -2.27710449579947    0.64458830938131    0.18576099168588
H          -1.65429268582684    0.95742715740497   -0.48338633859283
H          -2.47635803537726   -0.27276578638228   -0.07210836581797
O           1.29039936580446    2.11430856122282    1.17665135456529
H           2.02408981096119    1.18449142584819    0.37386006304373
H           0.73514146227419    2.60470122178262    0.56186021375125
H           0.68162430223836    1.45504240571356    1.62900596117904
