    19
        -40.91739530
S          -0.42994307446748    0.65264073910251   -1.00790287156608
O          -1.07199820829877    0.95537440236970    0.24365765512058
O           0.80822092433896    1.50840753267511   -1.21953281329154
O          -0.12320106219343   -0.74662752420753   -1.16589591064271
O          -1.31895590501627    1.13345828140409   -2.18414787807562
H          -2.12697134281913    0.58179813224630   -2.10290387807153
O          -2.88491494799934   -0.71007082618547   -1.17688831282377
H          -2.94205740387826   -0.35493912489716   -0.28401536362758
H          -2.12690370212574   -1.30786656125106   -1.18096610539178
O          -0.36760173408290   -0.44084575255244    2.43984864134122
H          -0.11659629027298    0.18634640689674    3.12054992328951
H          -0.70716440956961    0.08885432694740    1.69444836293318
O           1.55506426789866   -1.46846141606876    0.84847110285071
H           1.00102885776864   -1.48458936201018    0.05034854820239
H           0.92800530005276   -1.29408673615767    1.57973944125687
O           2.61812034913861    0.82245384653862    0.37026493143717
H           2.29488910038230   -0.09880164543842    0.63815992339928
H           3.43451426093008    0.69384899292025   -0.11878057285445
H           1.57646503248770    1.28310630684377   -0.54445485425451
