    19
        -40.92136498
S           0.69716196723057    0.27803119963758    0.75247734665696
O           1.04026081246934    0.10689320924498   -0.63845640860996
O          -0.83666984509584    0.05100145173942    0.88174518877042
O           1.40836491590169   -0.56595114242044    1.65830544990717
O           0.84367664493286    1.73484540691248    1.17843802943195
H           0.09709801439257    2.27113947195400    0.72534872317415
O          -1.10629697278096    2.80020084685251   -0.03997478193307
H          -1.83584262265673    2.26088419981048    0.27861721310156
H          -0.92162413932109    2.49745487703425   -0.96401248720731
O           0.91719662412654   -3.14396041808953    1.12910156538721
H           1.26647613996611   -2.26150780307933    1.36206946745001
H           0.70198074136015   -3.57610525007825    1.95805048933129
O          -0.32435620311268    1.65637969165421   -2.28491514119260
H           0.27744854752774    2.11125475185155   -2.87706660544050
H           0.21887261940737    1.01631452348578   -1.77610838460317
O          -0.85618938713541   -2.05907038506969   -0.51445206727857
H          -0.27937659336773   -2.63950235887688    0.03738996356183
H          -1.01634563971340   -0.80421958564657    0.35706928840342
H          -0.29183560414444   -1.73408268691362   -1.22362685890851
