    19
        -40.92136403
S          -0.76259443108712    0.00975718040754   -1.15808229713408
O          -2.20156410304889   -0.07193079704761   -1.11728938902206
O          -0.25617515835400    1.25852222471441   -0.56189507015106
O          -0.08522701100372   -1.13849918488989   -0.59922648560330
O          -0.34262520128528    0.08411740538230   -2.68766214511910
H          -1.08578186410764    0.50121027294881   -3.11415666349123
O          -2.09315838222565   -0.81590049257160    1.40860625620368
H          -1.77270417064135   -1.71696677957168    1.31163570732009
H          -2.32176153584745   -0.52344536457130    0.49718684522354
O           2.38699304533354    0.83155771331278   -0.75391828749759
H           2.53273433946647    0.38712424569598   -1.59073088628730
H           1.46085816082329    1.13867657578486   -0.76925258882313
O           1.70905959569153   -0.76074372945825    1.27195978624312
H           1.13271279066254   -1.18571855977671    0.59619690013382
H           2.27768881736165   -0.17321664587660    0.72669094074052
O          -0.14531978574870    0.75952218677930    1.89464442193700
H           0.72695380480748    0.10554363426493    1.78958100078730
H          -0.19773426391433    1.16808250979836    0.95414003405786
H          -0.96235464684096    0.14230760477659    1.90157190048894
