    19
        -40.91864554
S          -0.88819911605374   -0.76631048246706    0.13096165508349
O           0.45356038846996   -1.24424901303620    0.36889597493965
O          -0.77339984719908    0.72350153626584   -0.34424042788481
O          -1.66586493015417   -1.48345708674077   -0.81811500821341
O          -1.61293939852544   -0.62535407463315    1.46866756981916
H          -0.88996458872272   -0.43738332794922    2.17427147290760
O           1.54005519450247   -1.06712901062969   -2.08529558441551
H           1.22484691118624   -1.28024306952946   -1.18691713241557
H           2.42194595757659   -0.70243530524808   -1.98713196008290
O           0.58481514494692    2.17502381477987    1.56765992097675
H           0.14739429439222    1.78464530811309    0.79383872903040
H           0.05955884677042    2.93396808771541    1.82877733484297
O           0.42805362554530   -0.15918541281268    2.87984204353500
H           0.94953453725383   -0.72629503006564    2.29570803514198
H           0.62124046680242    0.76098043243357    2.59682112683736
O          -0.69298981799989    0.19743819646664   -2.79961382423534
H          -1.33320735316537   -0.52199852340031   -2.72590378758358
H          -0.76306403043801    0.67686599308486   -1.37459150159557
H           0.18862371578423   -0.23838304267603   -2.78363462637365
