    19
        -40.92048073
S           0.19632115658048    1.57324758864971   -0.25090443043439
O           0.59287437521741    0.99758290110210    1.04343728333748
O           1.07110493535363    1.12190046806830   -1.31148959864552
O          -1.21170519385361    1.34483230094190   -0.50416401725255
O           0.40474444464909    3.13743027496418   -0.13105696173691
H           1.29104992829909    3.26850951111394   -0.45518022927080
O           1.79000209001104   -1.29634976798297    0.78371785167147
H           1.48384359529890   -0.35518447430042    0.84147902628990
H           2.11624111011665   -1.52981694790409    1.65541572414795
O          -0.65151319376800   -0.69853677588181   -2.04112429767090
H          -1.22900609099135    0.01104389305668   -1.69456494278569
H           0.21138832185882   -0.23359486060338   -2.06864691148903
O          -0.48204811388330   -2.11680771134427    0.01224378328358
H           0.49171307661934   -1.95239972112982    0.29737634551994
H          -0.57339223038436   -1.62911319047984   -0.93028819214880
O          -1.55451813719835   -0.40572223929026    1.52524193685336
H          -0.74952810478532    0.16672306687106    1.56118396428413
H          -2.16587139206297    0.11799540489554    0.99253778075824
H          -1.03170056708344   -1.52173973074545    0.67478588529411
