    19
        -40.90668384
S          -1.58372663472647   -1.20575077639725   -1.14174155423005
O          -0.36231788191180   -2.02876518979391   -1.57055257466882
O          -2.78209040889591   -1.81061521842823   -1.58790848839558
O          -1.45007741963458   -0.82314479457325    0.23136798801898
O          -1.39268026683079    0.13706755481233   -1.99392903976210
H          -1.92675965294687    0.02544945172350   -2.77725560287389
O           1.71920691177381    0.42574265863477    2.55793837033495
H           2.42997547371387    1.06549252902740    2.62802546408745
H           1.96850810180613   -0.19718038169782    1.86288432152894
O          -0.54711362535396    1.56641763233652    1.41260035307753
H           0.11336187856082    1.22653186931496    2.04109322836434
H          -1.11099388410490    0.81611786109151    1.18066863457196
O           0.90776326698053    1.44986978162868   -0.80139609038580
H           0.39896074831715    1.71821464282548    0.00338746303361
H           0.24936882644123    1.36120380654584   -1.49571665906367
O           1.22770316023852   -0.98390031526007    0.08642132283382
H           0.41779460297081   -1.71456824781137   -0.98728257147111
H           1.28309612238861   -0.06271486306421   -0.30043511026788
H           0.44002066122344   -0.96546800979757    0.65183055503320
