    19
        -40.92139790
S          -1.00881804683278    0.61134149456486   -0.27785319320191
O           0.11251938364578    1.49114390684010    0.04645026018700
O          -0.59697081675295   -0.39609945809398   -1.25089318559618
O          -1.57329279927601    0.00331716423966    0.92450921073610
O          -2.13800657666577    1.47524208616370   -0.90870533705438
H          -1.70530105388670    1.84870002626283   -1.70373585043805
O           0.45271362934114   -2.56313365186511   -0.27729736505184
H          -0.01474357462794   -1.82219967509602   -0.74593930476752
H           1.35120243052095   -2.57090877161037   -0.61470203108180
O          -0.20746281695918    1.91274863170165   -2.64720036942368
H           0.31614846959366    2.17874384541333   -1.88034449778398
H          -0.16075899180752    0.94681500272038   -2.65667921582615
O           1.73062165894789    0.37370941085486    1.72082795881805
H           1.85973247219396    0.99270942342188    2.44261311254577
H           1.18233539742104    0.85727961188325    1.04160599401809
O           0.06234844776741   -1.50939249815304    1.98329050302137
H          -0.74666787717957   -0.91169532942014    1.63579070863675
H           0.25577416400726   -2.09960724287079    1.15554398274691
H           0.82862652056956   -0.81871398691202    2.01271860952242
