    19
        -40.91930888
S           0.02632514064952   -0.15489504028047    0.86460317006933
O          -0.52556087233278    0.03577821040565    2.30121597803468
O           1.24365427967371    0.57689655887916    0.74465171818597
O           0.08154674113270   -1.56891052006273    0.58392067493481
O          -1.05043584976238    0.46180074781774   -0.03752172550916
H          -0.73089196206475    1.37364192921412   -0.43535061821785
O           1.95802506804753    1.24094875578030   -1.83125845831448
H           1.55241099732399    0.42375304021600   -2.17490335966192
H           2.18698795170758    1.02817102895187   -0.91586726110757
O           0.43123740473150   -1.01157368505262   -2.07368071808551
H          -0.47697371387903   -0.79840881695786   -2.30004014340544
H           0.40542198837654   -1.40089837044519   -1.18728543449554
O          -0.10173634901565    2.57849569450188   -0.98221729645121
H           0.26171259418957    3.06974864511569   -0.24111687749631
H           0.68990448809176    2.17470400195790   -1.45173130856560
O          -1.87282753631765   -2.18776697828541    2.26276784379308
H          -1.26970238937815   -2.29789178781427    1.50491407435182
H          -1.62854262809956   -2.85098611769780    2.91320555000628
H          -1.18055533306376   -0.69260727625795    2.45569420199279
