    19
        -40.91820730
S          -0.48720587139958    0.36291463795030   -0.82685021935891
O          -1.29186373563886   -0.80664745207299   -0.58619675373174
O           0.88545957398064    0.12142307379788   -1.16601902615457
O          -1.13717173716927    1.17842062992533   -1.97238768001113
O          -0.56624282562727    1.28137926915063    0.39274213959307
H           0.39404565243861    1.54896597273701    0.69096857992464
O           2.06911451995954   -0.58365252708400    2.35997293029604
H           2.90145608092844   -0.97716920469238    2.62715014061643
H           1.64668660411779   -1.22008925808501    1.74160995101226
O           0.99370518265237   -2.08744334377515    0.40932027640326
H           1.22019355022013   -1.48418071496949   -0.31415124804034
H           0.03138225563135   -2.12781206172007    0.38550964081445
O           1.85530664576958    1.63288490273945    0.91782288689216
H           2.11394385072940    1.26716496981183    0.06182471072445
H           1.99402567419233    0.90705769098338    1.57589640542293
O          -3.53657514069783    0.34678727928091   -1.41768785252603
H          -2.11996154988099    1.08110736978745   -1.87476600152990
H          -3.98276982167206   -0.16718255148309   -2.09554343635089
H          -2.98352890853916   -0.27392870230570   -0.90921544404354
