    19
        -40.91930879
S          -0.58061737208516    0.46206519518349    0.47150335773818
O          -1.00819556822144    0.85631620487004   -0.82979475499228
O          -0.92753250085102    1.59610149535039    1.47069111989916
O          -1.11128634008876   -0.77592873095841    0.98825748271717
O           0.95027681516806    0.37326958837942    0.51907361776986
H           1.37683073724077    0.76739943419703   -0.34953461603176
O           1.80971373049472    1.26193922516090   -1.65910751685285
H           1.35063165998511    0.60306950162553   -2.26347292309546
H           1.36431601901205    2.10011220068481   -1.80667265593082
O           0.41132479259553   -2.16317846247775   -0.81603391215992
H           1.25810003195587   -2.10605417182063   -0.36737830875596
H          -0.25272206739138   -1.85612355635403   -0.18144101915040
O           0.27035689127044   -0.41574070869500   -2.91168049735467
H           0.36598631531692   -1.22867853324929   -2.38215824561783
H          -0.50329913598844    0.02617568716611   -2.53512339056202
O          -0.99968515841484   -0.00195629430880    3.52029043403366
H          -1.03743772818592   -0.62417756949121    2.77083947139224
H          -0.89856271809708    1.19689362322966    2.37804195190156
H          -1.83819841372990   -0.07150411852094    3.98370038508874
