    19
        -40.92267740
S           1.00333541032324    0.34567016577693   -0.07842105532851
O           0.98467184821796   -0.51327962905101    1.08361570624204
O           1.13915014687539   -0.38967200954844   -1.32704131145514
O          -0.21723440447241    1.18900155025974   -0.12341253943756
O           2.20096897875250    1.32599875559906    0.06318482152306
H           2.16342741140980    1.84237691665124   -0.77243477677166
O          -1.08919639724392   -0.74481890250493    2.64982567502231
H          -0.20952218041183   -0.72672014201757    2.19812686669490
H          -1.07329720692101   -0.04009128037712    3.30030186521073
O           1.36364354970835    2.11392898694125   -2.29484838144614
H           0.49395423019994    2.38769083386247   -1.98610932703953
H           1.30966771707896    1.15060227565315   -2.40079458652123
O          -0.72044832776729   -2.14855299767979   -0.76144258605252
H          -0.30122525719965   -2.68118513942217   -0.07990866812204
H          -0.00139516338842   -1.58032110987742   -1.12759125796691
O          -2.09101947019647   -0.32291827487089    0.35363831991064
H          -1.70931852862135   -1.13856438054393   -0.14758146288660
H          -1.89121466478339   -0.50820204775527    1.34186549611413
H          -1.35494768155931    0.43905641889286    0.10902721230932
