    19
        -40.92161554
S          -0.56417277237900    0.72658351879119   -0.53741145035139
O          -0.97151134110235    0.10229483861764    0.79700147995760
O           0.77890399485003    1.21951852359600   -0.48450363540089
O          -0.82389221602976   -0.22498137329173   -1.59293269014239
O          -1.53987124096246    1.91477854443614   -0.66644550829602
H          -2.42984320281725    1.48921640524495   -0.75566729595582
O           1.46515468783411   -1.55670611331252   -1.05162993484087
H           2.08854442947999   -0.85714425507152   -1.26264228503685
H           0.61651930908023   -1.26501057468803   -1.42494045475100
O          -3.40237163531380    0.11403018766280   -0.87791679426754
H          -3.43533720586794   -0.31555084177784   -0.01846020368586
H          -2.69874495951010   -0.32695130606239   -1.38070610366506
O           2.38842154593509    0.86476432172073    1.65189179237901
H           1.84227841459348    1.16148917352137    0.90090131847263
H           3.28088671721027    1.17180265064688    1.48434531186911
O           0.88978034325872   -1.34793279864409    1.54304476544980
H           1.19023357820790   -1.64685996105907    0.65257220852572
H           1.53584161989684   -0.66817633660154    1.82718183044604
H          -0.21082004643528   -0.55516462373875    1.19631763925920
