    19
        -40.92136409
S          -0.78420210738760   -0.63109445754426   -0.95362919616787
O          -0.69551069328741   -1.13994526683888    0.42649374522624
O          -2.10697492439576   -0.15806461168365   -1.27828678216583
O           0.27019109846333    0.32161308093571   -1.21917339362810
O          -0.49988926149779   -1.89167248798957   -1.87619667222284
H          -1.36283028956078   -2.26256738711929   -2.03750105098578
O          -1.61455263079598    2.10339189380466   -0.01824558304166
H          -1.97868464176499    1.32355566212035   -0.49549155901810
H          -1.01476227929459    2.52320596710638   -0.64123255010464
O           1.93336371517889    0.93627562749042    0.70996592632335
H           1.49733120548552    0.87954627977903   -0.17095722392673
H           2.24009108233173    0.01403536997230    0.85502037858613
O           1.92226769809819   -1.72341914264802    0.54299901639713
H           2.16201268275443   -2.07709552694479   -0.31524780767816
H           0.94750114194292   -1.67936710407224    0.55395689536580
O          -0.28763999617350    0.91405186219921    1.80815748260442
H          -0.52641339212245   -0.00913529209200    1.42681522842848
H           0.74609654569741    1.02041035023790    1.46458197655245
H          -0.84739495140370    1.53627517371076    1.21797116053895
