    19
        -40.91907682
S          -1.45586221242872    0.64908968209172    0.48895686334070
O          -1.26013353608218    1.75370621055567    1.39850236397109
O          -0.81528362927502    0.89991690466282   -0.81958478334430
O          -1.05716518934358   -0.63565071307274    1.01657024502951
O          -3.00698838879657    0.56555615733254    0.18355878846017
H          -3.31455572961104    1.46792486466519    0.20822900521647
O          -0.58540578653810   -1.78213544630994   -1.31352682626374
H          -0.83409283792977   -0.93636774776875   -1.70872409522033
H          -0.83661826369261   -1.66441306243438   -0.37618491094303
O           1.99973898837616   -1.50436358499266   -1.12666621966115
H           1.03371383424801   -1.75698320480455   -1.20285647755430
H           2.39505319659382   -1.65729204404273   -1.98680614357653
O           1.06760237683273    0.75661783420481    2.08160053022401
H           0.26937263152109    1.32942874745970    2.04212511156695
H           0.70231737271900   -0.13333702720697    2.17032432606468
O           1.62615706192009    0.88037456439152   -0.37852415784886
H           0.61270094341496    0.98080261899148   -0.65577664219383
H           1.57034116866102    0.86616109636866    0.66023210246255
H           1.88910798978259   -0.07903583008940   -0.68144906945593
