    19
        -40.90969452
S           0.73366510841547   -0.00536884668532    0.50057761056735
O          -0.34071719875232   -0.43120526143440    1.34427804721827
O           0.67890154128628    1.38102123433817    0.10159601410632
O           2.06703918332291   -0.29044720532886    1.20821951081347
O           0.80705395432166   -0.87672723946998   -0.76372960305420
H           0.13628598016080   -0.49329474420759   -1.42065842992351
O          -1.66879974439280   -2.89580244016519    0.69918132066357
H          -2.30059660064012   -2.39892690265240    0.17304617781222
H          -1.09067849266071   -2.24236823381710    1.10728816916976
O          -2.66323410825132   -0.04040668865704    0.01588765983088
H          -3.33681449916854    0.43724762312720    0.50330526653181
H          -1.91717105833839   -0.17962917871795    0.62758019399256
O          -0.95051376978511    0.48014186549913   -2.00027832616887
H          -0.59678922713585    1.29796052008637   -1.63114973460012
H          -1.74907986654774    0.27177219877896   -1.47588604649744
O           3.32199639375532    1.58911626979925   -0.04644153759922
H           3.71861220801547    2.27952375744153    0.49105332812586
H           2.75721423271274    0.27597861682625    0.76745491224264
H           2.39362596367142    1.84141465521189   -0.20132454322697
