    19
        -40.92246923
S           0.62031734171775    0.87249451455331   -0.02922577347428
O          -0.20013524088511    1.51082005001764    0.97368542209350
O           0.99486186511953   -0.52680872270207    0.45278150036883
O           0.04797740649672    0.81898192089408   -1.34035342506688
O           1.98983704936014    1.58232856000943   -0.10062252961803
H           2.28363807355825    1.62885300347299    0.84365157951406
O          -2.40635273883244    0.12656989133450    0.26171216379613
H          -1.75687481781780    0.73416249709013    0.65519297000257
H          -2.58191824304274    0.46350379286661   -0.62038066103536
O           2.01780670183551    1.35244189685096    2.48920670898508
H           2.08096505832673    0.40858042145173    2.66044739603203
H           1.07564299803036    1.54569102787520    2.35492957423141
O          -0.63321450666327   -1.46059118419270   -2.59298703990908
H           0.08598578842225   -1.74009179288031   -3.16191441600088
H          -0.41765408881482   -0.55554395836330   -2.29779532304974
O          -0.89808293469982   -2.03262052416715   -0.01800333235614
H          -0.86605048179201   -2.06666737434151   -1.00347027169383
H           0.19336928816222   -1.25971290130611    0.28374604569685
H          -1.63011852848091   -1.40239110846256    0.18939940148297
