    19
        -40.91955044
S          -0.65435848323449    0.34838900794125    0.90252713145905
O          -1.71844545426452    1.00236781660380    1.80670903667590
O           0.37563481892573   -0.23026121711336    1.69943383875441
O          -1.30617429351167   -0.55019333779842   -0.02216267525220
O          -0.12468339271245    1.56006874493557    0.11311550355523
H           0.80642083588398    1.37962857767958   -0.32265026206555
O           0.28681531384838   -2.52362783504233   -0.99760467354388
H          -0.05229137491169   -3.35203773559121   -0.65361339613894
H          -0.34721082132394   -1.83534496355139   -0.72866676118441
O           2.38282573099932   -1.27847598341245    0.17381470630334
H           1.80782962575894   -1.85796783269455   -0.36471734097071
H           1.84857547282461   -1.05815804333510    0.95334784765702
O           2.13058349804192    1.06881447954098   -0.85974668020862
H           2.31793176581279    0.12615592691226   -0.54797032368093
H           2.79188662690224    1.62574649896799   -0.44220413494465
O          -3.01149658954947    1.49153367195707   -0.39179368284773
H          -2.64421580723130    0.61974901109121   -0.61134034139862
H          -2.40181888424183    1.32565608920600    1.16691017570354
H          -2.48780858803115    2.13795713372246   -0.87338794789577
