    19
        -40.91318676
S           1.17619636331820    1.60010128153784    0.89954628463389
O           2.17485680952755    2.41001920878217    1.49521052735470
O           0.40861572952086    0.81546835862471    1.93925103587958
O           0.28740187741325    2.18285476461404   -0.06303994373685
O           1.96090272236122    0.43739674345727    0.10140321310263
H           2.82265545448180    0.43181143527780    0.50966013516001
O          -1.44473351222532    0.81034815628993   -1.45594234161705
H          -0.78551303104045    1.40765926395600   -1.03300796669579
H          -2.08442000328763    1.37421426011828   -1.89368768292569
O           0.45601700522381   -1.21713545961934   -1.68001091646361
H           1.11988132276337   -0.67421443802928   -1.23857685696810
H          -0.27788599053211   -0.61789668609925   -1.88204825402810
O          -0.58041794740179   -2.61436564792100    0.35166208527248
H           0.13151807268155   -3.02575796197018    0.84263809284998
H          -0.18989683480385   -2.26459866155972   -0.48210482546435
O          -1.60648785300480   -0.27837322107007    1.02140770217477
H          -1.73707506604843    0.08252940411174    0.12017260287475
H          -1.33243853411845   -1.22134984579069    0.88873928848748
H          -0.49917658022677    0.36128903698911    1.55872781866490
