    19
        -40.91606928
S          -0.91231052561291    0.31633679608470   -0.23326834286165
O          -1.25536779239400   -1.10490099387333    0.31987792630893
O          -0.15972565168820    0.13232352676731   -1.43721264156188
O          -2.10526395750203    1.09645848386899   -0.31831696198826
O          -0.00307276420693    0.91195758192427    0.85131750682421
H           0.71835485499636    0.19349209416937    1.04626189657457
O           2.41166985135676   -0.93295222910327   -1.34334998198206
H           2.76113496576114   -0.02924654621931   -1.40858562857055
H           1.51807447995381   -0.86654874239496   -1.70970137022639
O           1.60068728668345   -0.99666177021854    1.13011485155015
H           2.04206969997196   -1.04025122471071    0.23067214416623
H           1.02432439259997   -1.76355344127437    1.18544365045730
O           2.06075756673964    1.80316924622279   -1.19468654572881
H           1.20979207202401    1.42410144010816   -1.45733232329598
H           1.92023820303840    2.20806403164161   -0.33635803303043
O          -3.37662446025477   -0.27309087010510    1.53876560645518
H          -4.23444318664919   -0.59514729360323    1.25028515987248
H          -2.05460281055924   -0.98738535203810    0.89958429768832
H          -3.16569220428362    0.50383526275874    0.98648878937145
