    19
        -40.92174076
S          -0.23398913195061   -0.02601612329637   -0.86509370173793
O          -1.14709024353881   -1.07386776300291   -0.46023945022066
O           1.15269546820613   -0.38143359459647   -0.78939867008609
O          -0.56547786959829    0.38303015542401   -2.31658463859931
O          -0.50549258449365    1.23888149816767   -0.07165937281175
H          -0.08434479182658    1.20744827550341    0.93034853931501
O           0.30588658327050   -1.60920896706469    1.76007312663514
H           1.13683099000119   -1.87718811498817    1.35895298888461
H          -0.34464294994180   -1.59706424705028    1.03874277115467
O           0.56939385536375    1.00611877151987    2.14090235420156
H           0.42889696965693    0.03859021639830    2.27059002957087
H           1.51423783015796    1.09175342375918    1.87567814810946
O           2.88390817682778    0.88455412161089    0.83688402562096
H           3.27751548776935    1.62090829423432    0.36589986045769
H           2.39885695459521    0.35889191843480    0.17275006036047
O          -3.08592896615147   -0.16111132009296   -2.01530587927321
H          -3.46333814290775   -0.83347934888635   -2.58817022263291
H          -2.68313356088720   -0.62618582184621   -1.25882052009541
H          -1.55478406453634    0.35537863580216   -2.38554945892056
