    19
        -40.92453852
S          -0.57538195653329    1.38462641958077    0.27294837223812
O           0.86224524475324    1.46496854133358    0.50454239931038
O          -0.85807642832193    1.05679254235352   -1.12015900973566
O          -1.23736901736328    0.49013438671105    1.19916174269171
O          -1.17002632315951    2.82359354369015    0.53855145425133
H          -0.71968404207074    3.39404001643586   -0.07757204912957
O           0.73653366328662   -2.02397770695551   -0.29067465998100
H           0.95969757835163   -1.62144496058262    0.64974711913364
H           1.10562613379511   -1.31594799892328   -0.96552396323959
O           1.40339114564982   -0.05883210269959   -1.71933318561512
H           1.96884987904529    0.48801405964977   -1.16132711561589
H           0.52481605400034    0.39791742890488   -1.67830226773322
O           1.11731175206947   -0.74624788297706    1.84829308559609
H           1.17903514139296    0.15209979952686    1.43718352966468
H           0.27410311414477   -0.72379246861238    2.31547196766333
O          -1.71891732378212   -1.47239907853287   -0.43212248816081
H          -1.83182173744786   -0.94663414062417   -1.23290865088103
H          -0.30359654267792   -1.94649709438687   -0.37736683366216
H          -1.71673631616133   -0.79641328492790    0.28939056297803
