    19
        -40.92079115
S           0.60066039263132   -0.60719682104474   -1.21572914258975
O           1.36178703310270    0.39614573616353   -1.91446269124049
O           1.23400575927013   -1.02139649467362    0.03770772771293
O          -0.79777570594412   -0.25894916036183   -1.00557270428981
O           0.56991876526542   -1.89582148266559   -2.13416116297168
H           1.48458179160911   -2.02200502903458   -2.36647721187130
O           1.56174294306867    2.31037849277525   -0.10312446856244
H           1.77047190633657    3.12764597170446   -0.55949928484582
H           1.59213186840496    1.60250775712268   -0.78276074536729
O          -0.76892664156821    1.60147844068838    0.90373741405169
H           0.08556009142305    2.04344083402044    0.68769796972895
H          -0.98794655130768    1.10532306090581    0.08912988400385
O          -2.06504592710944   -1.70427012417331    0.77882635686099
H          -1.66849028125582   -1.29675191314127   -0.02716818982680
H          -2.97384199270107   -1.39992343153484    0.82030530929486
O          -0.15844144114704   -0.53865748971164    2.02642848508904
H           0.54155229827574   -0.79435250266396    1.28099762158605
H          -0.41958797068576    0.45023191730074    1.72509994825484
H          -0.96235633770975   -1.09782779157526    1.75902490517201
