    19
        -40.92343571
S          -0.11975498815135    0.30776518215238    1.65424968729790
O           0.23759640948847    1.63535535503541    1.20119915770563
O          -1.54109700121181    0.02529001189214    1.44937716459437
O           0.72243673724692   -0.72616082944974    1.07384883515046
O           0.12350735158654    0.25393931601352    3.20981253157440
H          -0.43964838257828    0.95003589955024    3.53363893662863
O           1.93430098626623   -0.07253553495165   -1.19567056080544
H           2.80142538239525    0.32052012748372   -1.08819566647123
H           1.61650634165268   -0.28890922779907   -0.29126652620839
O          -0.19328308975646    1.55711063089878   -1.37842994389982
H           0.62477852074596    1.06089235695465   -1.59110637300063
H          -0.07105966507234    1.81580089271385   -0.43395059793685
O          -0.14808488105299   -2.12966601198638   -1.02224321635534
H           0.57909408246974   -1.90834003246574   -1.61445501020163
H           0.16411939939562   -1.87398472055102   -0.12934796541706
O          -1.86526972729384   -0.25096084147149   -0.99717241892384
H          -1.29468259308706   -1.09435061494894   -1.13622441706345
H          -1.89021614816592   -0.14845447239597    0.04333882767786
H          -1.24066873547741    0.56665250188175   -1.28740245420946
