    19
        -40.92136391
S          -0.36600596494356   -0.50851949150709    1.23593038705990
O          -0.65818965989479   -1.10658235702385   -0.04735249818918
O           0.55379940504244   -1.26554087178210    2.04808688363291
O           0.05273807195336    0.89532402058735    1.07680425397530
O          -1.74040833793032   -0.44046092224537    2.02823141983143
H          -1.48544858180852   -0.49818385402177    2.94471665262912
O          -1.86958360678898    1.76611504705209   -0.58238513837615
H          -2.68156545657709    1.33605797409490   -0.30867681112376
H          -1.21913149962381    1.58777895828452    0.12277241818218
O           2.16720505801674   -1.52679864008726   -0.02030503422475
H           1.67726380865440   -2.16772298813218   -0.54310358883790
H           1.71158848846682   -1.50219344325287    0.85148931710792
O          -0.32995926010794    0.32820458762716   -2.21428806372962
H          -0.56278200311810   -0.40577952776360   -1.60062605244418
H          -0.95070776542403    1.03908521407143   -1.94023067211654
O           1.66844582481518    0.83790943277636   -0.84123069853734
H           2.04336156930421   -0.08838429473988   -0.61878713677501
H           0.88177068905976    0.67586167516142   -1.58528762293714
H           1.10760923099465    1.04382947078760   -0.00575801515571
