    19
        -40.91344948
S          -0.90764524753027    0.68359640911376    1.76794590521182
O          -2.05254787166117   -0.10808470305015    1.15356584046462
O           0.34176726015518    0.01395310117985    1.47477626752612
O          -0.94938275261166    2.06304540015953    1.43462394667771
O          -1.19042755157975    0.52528222132831    3.30087123181292
H          -1.09816911051888   -0.40112286437303    3.51596383156838
O           2.22650591042073   -0.44877484794251   -2.07913978720685
H           1.82269973977788    0.36728481268521   -1.74978081640875
H           2.08814167058283   -0.46574259295367   -3.02754525911917
O           0.57289939130705    1.42860380281789   -0.81116455044391
H           0.23468103753836    2.29302768296480   -0.55956848221475
H           0.71435472944363    0.96629188670129    0.03481436687928
O           0.67202493254132   -1.99901060443266   -0.43639589803840
H           0.75424286579585   -1.50568150685863    0.39213771711945
H           1.37501147910448   -1.65063209892689   -1.01690440809497
O          -1.32560521291678   -0.50427875907857   -1.17504546729334
H          -0.77383556152479    0.28692897410752   -1.32669573640186
H          -0.66512264404054   -1.23983593359546   -1.00704294829996
H          -1.83959304427755   -0.30485037981925    0.11458426626742
