    19
        -40.91535452
S          -1.19974978027381   -0.93322448382996    1.30465078248857
O          -0.18992197012050   -0.32568590397295    2.11926110069879
O          -1.90138159105677   -0.06328507276646    0.40824879369740
O          -0.64273563756114   -2.13613881910763    0.56231895713863
O          -2.25924480022737   -1.59638256667159    2.25355490266091
H          -1.75474975821234   -2.00286727999173    2.95435946080597
O          -0.77494635244001    0.76806538285575   -1.81455987106720
H          -1.25564798104077    0.54012770101686   -0.98619270249064
H          -1.44674033375656    0.88039254453217   -2.48967968092783
O           2.01853271716970    0.37189427826969    0.67825066972204
H           1.36804155637559    0.20913879978977    1.38111480898739
H           1.80083085014369    1.25132267650311    0.31218561080471
O           1.12710712984488    2.50315597865885   -0.77543357379361
H           1.71253830706975    2.77038785689648   -1.48616346735184
H           0.39535876605087    2.00979284082977   -1.18244600457275
O           0.96135923160332   -1.21121475951105   -1.05984144645937
H           0.42577337656625   -0.56858948591283   -1.56072731219926
H           1.53071765732402   -0.65786972702608   -0.43599209896582
H           0.08485859233704   -1.80901995065485   -0.18290889910434
