    19
        -40.90412664
S          -2.08198544204271   -0.54875959565420    0.96025180525142
O          -2.33767470989281   -1.13482962220607   -0.31701356696978
O          -0.86435140585062   -0.88657402100948    1.61581267114771
O          -2.22727446311148    0.99440377872084    0.88325109878334
O          -3.28194135956493   -0.91082892758040    1.90532505352873
H          -4.08182697822953   -0.90030335957398    1.38150517433889
O           3.01643702997243    0.90630194176526    0.08617611496584
H           2.14615533348271    1.30915724561182    0.25150969328145
H           3.38903913958916    0.69159806303742    0.94302851556220
O           2.20465517431823   -1.12053303972983   -1.56755494203077
H           2.69107983993186   -1.06210436087833   -2.39143695694252
H           2.58637973528041   -0.43865786548819   -0.97902166477441
O          -0.22834120286920    0.04095268572132   -1.65782546579167
H           0.56364362965684   -0.53618439846197   -1.71800158764777
H          -0.97849370162110   -0.51969231345304   -1.41586317524560
O           0.29699789151723    1.29573845145873    0.54113422014458
H           0.32222124416662    0.50266133385957    1.09880313854069
H           0.16726100538088    0.94716596099016   -0.39137918141348
H          -1.30198077014897    1.37048805288174    0.77129904530034
