    19
        -40.91820708
S          -0.96266786221956    0.34568135207436   -0.07909197367559
O          -0.82295742616670   -0.82199322839816   -0.90038957705202
O          -2.30391500578148    1.03500826628605   -0.43446648650228
O          -0.92685065993850    0.12399195573044    1.34312486651363
O           0.10801507522355    1.37209060298080   -0.44999545391412
H           0.68122188865595    1.00889592020930   -1.23882743643041
O           0.84209745702629   -2.00385942536730    0.88951411379636
H           0.50858170796054   -1.40540986469654    1.56694603374261
H           0.19361875086312   -1.93076454883839    0.17348216671714
O           1.36041113316636    0.16661866955379   -2.25041051776012
H           2.07386796293835   -0.25222876284500   -1.70773873836725
H           0.65928270221832   -0.49429495054051   -2.32161559946572
O           2.93493810563318   -1.12755571694233   -0.55195691180110
H           3.48356026631803   -1.87856331066462   -0.78431537446097
H           2.25564236546118   -1.46267866280279    0.07411943291823
O          -2.50098594176703    2.19571833350321    1.88287691270130
H          -1.80676866333475    1.53153746055767    2.04606140937871
H          -2.52239325690709    1.64590284815869    0.31642881803040
H          -3.25469861932064    1.95190305207147    2.42625431561378
