    19
        -40.91597562
S          -1.31798716903806    0.69309340667901    1.07515315286393
O          -0.43694765811854    0.96118423475057    2.19818964158663
O          -0.84121309919127    1.39155532982470   -0.13426817372102
O          -1.56800536341964   -0.70128294959247    0.83560186989394
O          -2.70582277004554    1.36645904454148    1.41816047491035
H          -2.45176573856653    2.25048214452972    1.66418438702730
O          -1.12800641814520   -1.91017305555662   -1.43790944032595
H          -1.35495926439853   -1.40131306147887   -0.62322492414603
H          -1.16305048229580   -2.83244620458128   -1.17656190408003
O           1.87315670687538   -0.05333155342339    1.67038194854200
H           2.50722376039468    0.36009285496778    2.26026603348456
H           0.97449113890909    0.24541083117108    1.97765303692839
O           1.14594557130985   -0.99028373543378   -2.31665676561445
H           0.29500545700523   -1.39411225827603   -1.98460458843767
H           0.94893723792795   -0.64597802700020   -3.19018645163761
O           1.50574056058806    0.88780330237486   -0.65744443515535
H           1.43453135425425    0.11647664696240   -1.34662321608352
H           0.48587251000376    1.17950892880505   -0.46830816579645
H           1.79685367594285    0.47685412073886    0.23619752976133
