    19
        -40.91820714
S          -0.16007548224107    0.91551728706626    0.43442683530189
O           1.23470344722070    0.59476524641012    0.53111165970993
O          -0.44504219715512    2.13482805490723    1.34688745151671
O          -0.64843913535706    1.21117331662759   -0.88738354057825
O          -0.99529966691540   -0.21661954852516    1.03238036368517
H          -0.36490708148929   -0.95620272697239    1.40457726183694
O           0.92888829153041   -2.97651245917317   -0.68646112445052
H           1.63813654196393   -3.55774826440849   -0.96606636567028
H           0.99654255739340   -2.16830446066253   -1.24145658142155
O           0.77715765118960   -1.84825683875737    1.70976531186884
H           1.46465789629954   -1.17970286728423    1.59228280830317
H           0.80665058365696   -2.41310868333042    0.89779102553244
O           1.23301828347567   -0.60118933139242   -1.90649906275033
H           0.42399342058527   -0.12391030870664   -2.12087739152959
H           1.57904910758075   -0.13699302775281   -1.12962096213745
O          -2.53986363597145    2.85927092751388   -0.01114607679288
H          -1.31170864132188    2.51876956389011    1.05335066714656
H          -2.50351040154006    3.71944132614461   -0.43711456600015
H          -2.11395151890187    2.22478281438990   -0.61594770357383
