    19
        -40.92135407
S          -1.17877390182123   -0.20418563012952   -1.00235596246448
O          -0.75434052168543   -1.58665971647773   -0.97719188987541
O          -1.96811739580799    0.14914194916538    0.17823593194192
O          -0.08255419952693    0.72902504353778   -1.20894839255160
O          -2.13648820448686   -0.03140587472622   -2.24456022387657
H          -2.77121325577817   -0.73038294789402   -2.12098225421706
O           2.31058571009367   -0.43367631640356   -0.80833157097885
H           1.50805162455257    0.06095054654594   -1.06535537233726
H           2.52096728891606   -1.00619904944106   -1.54807449095401
O           0.55720213391482    2.23488933633695    0.87005756783115
H           0.02219688528859    3.03078425860626    0.87184348889706
H           0.39352970767191    1.78903775854711    0.00804966126218
O           0.89365507446051   -1.65538869173724    1.05858265005150
H           0.23971856600767   -1.86556235374355    0.35070089068852
H           1.63980064217276   -1.24745020299918    0.55750532794592
O          -0.37744691205422    0.19918650150720    2.09296996221508
H           0.24505463300841   -0.63820873488431    1.76801369050292
H           0.10175029205603    1.04983733515977    1.80487811149341
H          -1.16357813877353    0.15626679981330    1.41496286365600
