    19
        -40.92071440
S          -0.50823639505573   -0.81474470107458   -1.12853262662726
O          -0.47149320192508   -1.24686991331908    0.28264910184745
O          -1.85837911335781   -0.55215550616396   -1.57089033360897
O           0.40717628983983    0.28156280276187   -1.34646825009513
O           0.01509783317017   -2.04788815054457   -1.96649458077931
H          -0.77318648131017   -2.55214534691327   -2.14683294535173
O           1.69526836778367    1.26666601447294    0.72076145445731
H           2.10457170275215    0.44459410234606    1.06424732690449
H           1.43226305551707    1.02736140380307   -0.19792229660224
O           1.99347355562799   -1.30774209557785    1.33906180825487
H           1.12854303438804   -1.43971980838601    0.90234938629821
H           1.98758153562781   -1.85060256141586    2.12874268546485
O          -1.83702058476383    1.87008590727316   -0.57785518310925
H          -2.03403310418969    1.00204149151711   -1.00295215636869
H          -1.17591829640591    2.28006558479540   -1.14334914348541
O          -0.64298563984006    0.96404102663396    1.47343165500730
H          -1.19589942866195    1.46175293678771    0.76095276724689
H          -0.67224527969741   -0.00692227730019    1.14246931853378
H           0.40542214139024    1.22061908832828    1.26663200148753
