    19
        -40.91864565
S           0.95253042467008   -0.68414277640062   -0.11785836083030
O           1.36288286177056   -1.56322493444505   -1.15650343709215
O           1.10419106120528    0.73069308387694   -0.36395538495104
O          -0.56397296940672   -0.94370610784771    0.18346618063350
O           1.61254293149681   -1.03323618171056    1.21518580726684
H           1.56686417573689   -0.18609046738755    1.79512656844285
O          -1.33547281875177    0.62889912914028    2.31426768280217
H          -1.22207509415585    0.06765102256602    1.53027921862407
H          -1.73210301684599    0.07913168622643    2.99295289632928
O           1.28297045220347    1.21147300016932    2.32269226545837
H           1.37121638321680    1.63841540880525    1.45975221182302
H           0.31810533258883    1.17015675153241    2.49985265931193
O          -0.41307965501634    1.06822785916178   -2.55982284652722
H          -0.91523700239483    1.87783176324701   -2.44742445214207
H           0.24660093815870    1.04680744639451   -1.84141338252843
O          -1.20774307681223   -1.44804329422055   -2.19202535999239
H          -0.97726387695510   -1.20520313563234   -0.72476747349355
H          -1.06659690916471   -0.53707836319431   -2.53446490627755
H          -0.38436013165960   -1.91856189012775   -2.37533988689100
