    19
        -40.91711828
S          -0.82696577261830   -0.04376917263280   -0.05801564219497
O          -1.26434145533181   -0.60266345390253   -1.41505935671199
O          -1.00431440406105   -1.00397640812828    0.99230680875562
O           0.52072699011634    0.47500268512367   -0.15290995356769
O          -1.82517462048318    1.11132515010964    0.10141668328496
H          -1.81450974961930    1.40994547063662    1.07062490508979
O           0.66293486787901    0.33610999265133    2.59666665641786
H           1.08318912687486    0.66203721873162    1.79138192900330
H           0.17829138062013   -0.45162866144999    2.29902000041729
O          -1.63257830199521    1.64318089971693    2.59068227785558
H          -2.23899236436916    1.06667350548595    3.06215089301680
H          -0.72411929423829    1.28246466210685    2.75503089174426
O           2.31959469743523    0.02899536062948   -2.06128740565841
H           1.70058673218925    0.35406097787285   -1.37564151349111
H           3.13532111669612   -0.18554161077626   -1.60435093397303
O           0.58178455521597   -1.86116111610735   -2.64046829488416
H           0.36189014297248   -1.83663869411912   -3.57493985955739
H           1.32950886068397   -1.22348285696261   -2.50905276548860
H          -0.54283251804407   -1.16093394897843   -1.86755532006281
