    19
        -40.91271009
S           0.38366388425425    0.27855344510032   -0.28883152383900
O           0.54365120201941    1.61818214476085    0.18689934132566
O          -0.32535231465072   -0.61987291855350    0.58524963151241
O          -0.32693429220409    0.32474814906837   -1.65456742355279
O           1.75708206363391   -0.33756880189770   -0.62854188738218
H           2.09418408537452   -0.72896126516480    0.24786995128640
O           2.06674084673759    1.48612234459544    2.39935982227254
H           1.43677415395256    1.67239747437341    1.67719311725647
H           2.79350591126089    2.10244853994488    2.28874706967208
O           2.17839901054678   -1.09884546713912    1.75228750815855
H           2.27219383889094   -0.21303762111138    2.17045445398476
H           1.25392989051878   -1.34434948052224    1.87713553553544
O          -3.30166248704814    0.46217745150280   -1.61048421327057
H          -2.48180606080908    0.96541025397937   -1.56877539960782
H          -3.80737973713631    0.80667647316072   -2.34947676247206
O          -1.72056121181991   -1.76857143833230   -1.41140816352577
H          -2.56326712941470   -1.28307630895871   -1.44293601844773
H          -0.81762435342946   -0.56943764581039   -1.74681210596661
H          -1.43553730066118   -1.75299531896304   -0.48336294294238
