    19
        -40.91039643
S           1.41174944998453    1.09616589147631    0.73872773321776
O           1.37295214390367    1.05543242360720   -0.70082868796608
O           0.33501880818350    1.84748705623729    1.35160886567025
O           1.49255720656840   -0.26383091425964    1.31421794876421
O           2.75942114319621    1.80175050682750    1.15016196836611
H           2.66394281420987    1.93352678987425    2.08891109227800
O          -1.80520184773169    0.49936955566048    0.82166682084994
H          -2.41506750541726    0.59553148892673    1.55576066425718
H          -1.04078313901582    1.10603422337990    1.00736934346055
O           0.50354989299851   -1.06451680884046   -1.91547104469825
H           0.85308559394633   -0.20321653344998   -1.56975799513858
H           1.25302256473998   -1.53319126319913   -2.28667065793369
O          -2.34279447701480   -0.83900544033462   -1.65703150262011
H          -1.52629796334662   -0.77641831385932   -2.16128667584666
H          -2.37595625122541   -0.06619331921058   -1.08510975770705
O          -0.36603448870558   -1.59686910597993    0.44118985410351
H           0.49094701045959   -1.09080735596311    0.89449050697154
H          -1.11539209639437   -0.92257077958559    0.56454625440620
H          -0.14871885935863   -1.57867809159703   -0.55249475067707
