    19
        -40.92343659
S          -0.28182167175279    0.72666156328937    1.49613981824383
O          -1.49781839413472    1.22643593511240    0.85267956849960
O          -0.41011123339941   -0.66042420539044    1.88906200578722
O           0.89730603856044    0.96831660129209    0.67985163677993
O          -0.09380509807404    1.58015952850046    2.80687093648181
H          -0.89725070459861    1.40649972618052    3.28729667382179
O          -0.68926058446733   -1.93686951717435   -0.37707920624449
H          -0.70233325594708   -1.63826482859595    0.56357712151276
H           0.25959755987943   -1.89891432801334   -0.61958358783160
O           0.66594236430087    1.11753094556301   -1.97446009288829
H           0.83266184117851    1.33615397667752   -1.03394082441341
H           1.28564686189676    0.40887739833398   -2.18020670501636
O           1.87394643197422   -1.15696098240742   -0.57603812430073
H           1.62286258643333   -0.39096507765190   -0.01384888219657
H           2.53917674895116   -1.64245284820647   -0.08631904135462
O          -1.61155442096058    0.14849419471139   -1.38209244192965
H          -1.31266191858526   -0.82442649105114   -1.05486632602236
H          -1.70975059469491    0.66318367260779   -0.47722038658748
H          -0.77077255655699    0.56696475622191   -1.79982213233818
