    19
        -40.91930893
S           0.26995035704683    0.65122868697529    0.52503623346329
O          -0.36886058731780   -0.15939561339695    1.50817883002742
O           0.22833677708910    2.12745541654670    0.99806916492712
O           1.63359422020833    0.32092741366167    0.18924630528591
O          -0.54791117698500    0.64830611624587   -0.77292757235205
H          -1.47523021309753    0.18775904683373   -0.63142350996925
O          -2.68571534966595   -0.56589729079716   -0.29583546336592
H          -3.04032641326564   -0.18645157700435    0.51220959467829
H          -2.28396779931637   -1.44675889436215   -0.02575576739512
O           0.75800889572736   -1.94252322833084   -1.07828031507307
H           0.44154461602404   -1.54235751585790   -1.89145989235864
H           1.25852358332981   -1.25500174896700   -0.61485853454161
O          -1.30704138682880   -2.58168093204442    0.59190904456415
H          -0.95591816982698   -2.02038308222754    1.29709262234899
H          -0.57955321505527   -2.64150206257743   -0.05437450517298
O           2.30724856605539    2.81401864322572   -0.40420748464545
H           3.06856395613003    3.13560099614056    0.08531937187795
H           2.36495634538981    1.84094862030232   -0.41131778029837
H           0.91379699424068    2.61570698556256    0.47337963807489
