    19
        -40.92161571
S          -0.09741125113210    0.41610617424885    0.97767608503168
O          -1.26498851393395    0.82156397737837    0.25517746317806
O           1.06876340722427    1.24202865567627    0.76602270050782
O          -0.42180187118233    0.36328832011317    2.48504136610721
O           0.26528622123492   -1.03519043075288    0.66300564244103
H           0.23638726353648   -1.25039704742231   -0.39636292585668
O           0.13429523757294   -1.32965114262646   -1.79119271621622
H           0.42607883348339   -0.42337579689244   -2.04929060766265
H          -0.83673008206098   -1.34035459140343   -1.91501230942854
O           0.64163184902602    1.28368865973196   -1.90299303989294
H          -0.20675743586378    1.73414173901160   -1.90330987682284
H           1.00104501775882    1.41373152146213   -1.00934959868928
O          -2.47061085036562   -0.75594859370407   -1.57232497909924
H          -3.21796496655108   -0.32828058091024   -1.99320430467645
H          -2.18734654841228   -0.17582895256667   -0.84200280018227
O           2.09836761252898   -0.18290565950179    2.81150889945044
H           2.16929147984908    0.46269088197965    2.09005237174769
H           0.44266499355455    0.13506671052810    2.91136955712415
H           2.21979961375345   -1.05037385444025    2.41518909290877
