    19
        -40.91907723
S           1.26900717623192    0.52576083106906    0.94433492116794
O           1.11777759289768    0.09545212754274    2.31460886017244
O           1.32529682857930   -0.62334034009808    0.01562766959399
O           0.28370726780929    1.48884060762483    0.50973596342148
O           2.68476643646613    1.22411515276217    0.82645824403416
H           3.25141384848761    0.74366473772119    1.42444680296277
O          -1.77164286817667   -0.51281191106963   -2.03051571713445
H          -1.00227869194268    0.11893370545333   -2.13978635321686
H          -1.82079160332077   -1.03158587981916   -2.83541444372416
O           0.41533002682670    0.90512848782323   -2.06104868861978
H           0.29701945496711    1.41768620026524   -1.23732751780583
H           1.06686930702224    0.23903372339658   -1.80521983070117
O          -1.47728915095751   -0.04921294555344    1.96697288510701
H          -1.50470921658086    0.80839624197027    1.52317888139206
H          -0.58512868996478   -0.06543535487854    2.38030933337837
O          -0.94000035572780   -1.63423796588470    0.07570048783888
H          -1.37042259606354   -1.24101784600457   -0.78564281333827
H           0.06851303877259   -1.32643488678147    0.03550790320745
H          -1.30743782538513   -1.08293468544203    0.87807342220998
