    19
        -40.91505811
S           1.15421376338188   -0.07536501302397    0.95468470450746
O           2.28228941630420   -0.92834570110537    1.02981981437019
O           1.08331506286259    0.77871544041581   -0.21339902567147
O          -0.15093252407190   -0.90087508251664    1.03689614236762
O           1.03676466650294    0.82597590818432    2.20898143304558
H           0.32032272833997    1.46935591769880    2.00939296705834
O          -0.64787677021402    2.39387997709244    0.88119079519966
H          -0.45309841262794    3.33304603164185    0.84186019573216
H          -0.06639371090875    1.95242193928618    0.22721982588602
O          -0.09642171306877   -0.62891372266982   -2.24154709776527
H          -0.99608552863684   -0.37580971598397   -1.97076239069162
H           0.48037977011894   -0.00787874225440   -1.77067408071460
O          -2.14894078924538    0.28599397250717   -0.60442271482447
H          -1.80501912802423   -0.27398260345819    0.10133038692584
H          -2.10857190639715    1.18459455028098   -0.26381830431258
O           0.45249135447212   -2.62531723861221   -0.65598013289836
H           0.00503135454940   -1.72598176496780    0.41524860661881
H           0.24963359735050   -2.02576140616732   -1.43036292610087
H           1.40889875931052   -2.65575275649912   -0.55565816870104
