    19
        -40.91458777
S          -0.60180654857681   -1.16629489405108    0.31659159036157
O          -0.26477815385026   -1.19603699001646   -1.21593959937497
O          -1.17218099925040    0.11835448839100    0.57867366048750
O          -1.38807136207937   -2.31438460446790    0.64314692625619
O           0.76881152821232   -1.28971069660402    0.99332170952806
H           1.33111889714837   -0.53469872080129    0.59977665607204
O          -1.27293204873260    2.79873329701015    0.53151355075540
H          -1.82768514219322    3.02095597770225    1.28171755763040
H          -1.30283414889488    1.82662419291211    0.46382303874761
O           1.84467766700711    0.61819982222613   -0.26158017570544
H           1.74715658233799    1.48376394217640    0.21358097860489
H           1.21290622609808    0.62499072521332   -0.98632752422726
O           1.37578957226752    2.98372318304870    0.83148663672630
H           1.68810643045673    3.74008059195341    0.33195206540301
H           0.39328033674910    2.99173967677160    0.76818268684886
O          -0.41825044493864   -3.78598034637260   -1.32176096066469
H          -0.18903701700691   -2.15326809655761   -1.46449454884308
H          -0.80844151213101   -3.59285865061494   -0.44771489410933
H          -1.11582983262765   -4.17393292794073   -1.85594936452336
