    19
        -40.92453848
S          -0.43242213933914   -0.03661000806902    1.46078173272507
O          -0.17255839537835   -1.41374190843238    1.05743017905233
O           0.78389786608458    0.76496603237218    1.38022544998359
O          -1.53637126922014    0.55576675509462    0.73511687678597
O          -0.86287295226583   -0.07068047137708    2.98006714554712
H          -0.12631879532761   -0.46817023208525    3.43549316605111
O          -1.38104729316018   -1.32939169739435   -1.24380996263255
H          -2.10118238769078   -0.73584975243560   -1.00114607198702
H          -0.96242362242728   -1.55379584407322   -0.37552810743404
O          -0.18095143271897    2.15416421700345   -0.79861622748340
H           0.54295420734067    2.33247488199292   -0.18653941288563
H          -0.85303398782879    1.69853699011195   -0.23445273452047
O           0.49526385738671    0.11242297947770   -2.11274498471983
H          -0.31269256916346   -0.51772002137240   -1.89890339477934
H           0.23227006849286    1.03786020317904   -1.70030929183077
O           2.08731074646609   -0.68211437192690   -0.32922637624238
H           1.76155573072976   -0.06709387700836    0.37654016069523
H           1.75594011290321   -1.54351495885202   -0.04946026695082
H           1.26268223523107   -0.23750893634868   -1.49491789945303
