    19
        -40.91173148
S          -1.77703071824629    0.38149851070843    0.29470890017974
O          -1.94113528207205    1.27134363154719   -0.81508054852335
O          -1.02157762806406   -0.86260904202768   -0.17247952868245
O          -1.20017698765912    0.88313547439988    1.49440463738116
O          -3.21157584379910   -0.17920081383551    0.64913781169674
H          -3.70254542079954   -0.22915205664526   -0.16811746318562
O           2.57540937327285   -0.91313049002685    0.89498178036507
H           2.27771216782165   -0.65121459119879   -0.01332468440267
H           3.17043607944250   -1.65569187031542    0.77897773326208
O           1.48976257156701   -0.38395778371747   -1.46004755333134
H           0.61255592775853   -0.75952160998175   -1.32062500335957
H           1.34002094730139    0.57650013261323   -1.54868867403965
O           0.51479805843758    2.14384395428833   -1.54843406554207
H           0.43953322122088    2.76094156135808   -2.27859917806647
H          -0.39368796650247    1.92583513135949   -1.27461963321363
O           0.21468081816192   -1.35885158494463    1.88313488474112
H          -0.47725733657442   -1.20877300541370    0.71553343804166
H           1.17139885111084   -1.21674498062757    1.60899024199425
H          -0.08132080899619   -0.52425058955556    2.28014689307308
