    19
        -40.92085435
S          -0.67076047444090    0.16450665177391    1.24630238045311
O          -1.25047798563591   -0.34301680173016    0.02739847122711
O           0.82755509860080    0.45998786565335    0.99519700792452
O          -1.32957546767533    1.30216788228201    1.79595369158052
O          -0.58589127347569   -0.96510538580862    2.28634370907480
H           0.00392213599715   -1.65373248207258    1.86132019884323
O           0.31500947936211   -1.59019543346045   -1.60069549851702
H          -0.14030929757580   -2.20812645685178   -2.17550602231806
H          -0.38202225397396   -1.14321985035084   -1.06232145094017
O          -1.16046188838676    2.61624244142859   -0.59893162259854
H          -1.40449860136943    2.18120143458181    0.23470428104941
H          -1.03052458886162    3.54458891904416   -0.39048133870228
O           1.09832420765027   -2.38015772049462    0.90518200264897
H           0.90146015033011   -2.22209400596169   -0.04161965874586
H           1.90290323871167   -1.88875951475286    1.09127331224006
O           0.98036617213957    1.20733291001237   -1.40122557937291
H           0.99192902365375    0.80484941772796    0.03345879081784
H           0.77496463070059    0.37146945455097   -1.84325079291060
H           0.15808769509684    1.74206066263432   -1.36310189171202
