    19
        -40.92221090
S          -0.40314677737272    0.97305595790732   -0.09330455204438
O           0.45292126852171    0.47288180815780    1.09392676623853
O          -1.71959916072741    1.22353763443280    0.40139340715528
O           0.25878343893559    2.04165618667684   -0.77348494745757
O          -0.41464109400543   -0.24385906335187   -1.05493481006655
H          -0.69077521627682   -1.05028464257416   -0.49828282606651
O          -2.94692951845535   -0.71927165671469    1.72670235699838
H          -3.85406123369150   -0.74155300349800    1.41584708450000
H          -2.55501631313421    0.10336303563818    1.36659809402932
O          -1.01388874449172   -2.09091956363669    0.58001056459766
H          -1.80678172695560   -1.72278065612064    1.04635845422917
H          -0.29745286928422   -2.05895047168415    1.21982560343173
O           1.99463601488333    0.73576617742271   -2.30258307683281
H           1.37823314537340    1.38913153907379   -1.91634546517318
H           1.43708385385839    0.04675286662180   -2.67276132400582
O           2.78599632132704    0.15294831971259    0.13007063783676
H           3.36963052309768    0.86532964212257    0.40136114499847
H           1.40731015278833    0.33408009541926    0.77054606641570
H           2.61769794555844    0.28911580436464   -0.84094318882949
