    19
        -40.90792163
S           1.04154892185170    0.71001519647596    0.75818341231192
O           1.56219302449447    1.08572425043436   -0.51249247292431
O           0.44126840233495   -0.60812336261999    0.81034406601880
O           2.13138914345205    0.79518114367843    1.84101168477278
O           0.00258424088982    1.74782671394867    1.23456979526545
H          -0.55445266516944    2.01298299808664    0.43221445143853
O          -1.12586760515806    2.15629111648993   -1.02061877000677
H          -0.43543025851103    2.62130085706985   -1.50156415338528
H          -1.11043090524567    1.23122637871638   -1.35295467043478
O          -1.86122231154585   -2.60185120766450   -2.94005306681755
H          -1.44057958246928   -1.84340430324495   -2.51112060231165
H          -2.80589198361593   -2.48073061895792   -2.83429983350503
O          -0.56542720718448   -0.39955334858348   -1.66860128299624
H          -0.31087258548018   -0.68391470728023   -0.77151425053971
H           0.26658169357333   -0.28171686156654   -2.13761038306983
O           0.98014857704004   -0.92059136389529    3.39741777304433
H           0.50017874918047   -1.07991474889620    2.56499695138991
H           1.47480950455529   -1.72050301370135    3.59385253447489
H           1.80947283704445    0.25975489153028    2.61823881728419
