    19
        -40.91833189
S           1.44651176356897   -0.91091575361814   -0.23757461410250
O           1.10173024597032   -0.13384843538310    0.93668271434194
O           1.04460035286808   -2.29425356958453   -0.17898114510114
O           0.97783349410485   -0.25511794496896   -1.46853625907235
O           3.02800261921851   -0.89489861823264   -0.32345780117213
H           3.21970880055817   -1.58166184985156   -0.95479567401009
O          -2.50126427565398    0.11712929401960   -0.28487029321687
H          -3.00682099285265   -0.35827536213648   -0.94668426514878
H          -2.04131902357946   -0.57905002625060    0.26253151173972
O           0.49643613850266    2.38612800928781    0.92003630597425
H          -0.03594283775923    2.53662768123269    1.70386303899165
H           0.87714270408573    1.47531105413855    1.00962356079109
O          -1.18475059464442   -1.68706304714828    1.07808151974037
H          -0.45284520633911   -2.08302985634328    0.55870896620165
H          -0.73426795080685   -1.23096169454221    1.79475356438768
O          -0.63640289439701    1.57507199220553   -1.20592648160498
H           0.09343216902052    0.80666512546944   -1.40273669585246
H          -1.45225785610054    1.04802917796817   -0.86265891820289
H          -0.23952665575825    2.06411381373523   -0.39805904467352
