    19
        -40.90970326
S          -0.42994019753136   -0.98358499122478   -0.58364839678745
O          -1.60800756598123    0.02750326032115   -0.34970645393151
O          -0.01237607836587   -1.42463172848280    0.71198207716215
O          -0.82167663665767   -1.96974724843186   -1.53185542822958
O           0.64040726156153   -0.08741685782491   -1.23243836295560
H           0.81717572730746    0.70029625575573   -0.61964174120112
O           0.60927414094309    1.87637742176148    0.40200615940316
H           0.64933106500334    1.46981392179143    1.29414880356697
H          -0.28608580859704    2.20896004082813    0.29868952730621
O           0.29325550875921    0.41876358934081    2.63370257453580
H          -0.42753753622459    0.43841432596835    3.26506362325877
H           0.14536904318122   -0.35937934928924    2.06209092290826
O           2.71409022174792   -0.69768225037911    1.15135692103663
H           1.91587672450043   -1.19660783868212    0.94944240688050
H           2.51776252393692   -0.18877789877620    1.94203761093342
O          -1.91578981183557    0.02148425472430   -2.92861225167317
H          -1.19623216121176    0.44949034873530   -3.40029297221423
H          -1.64862937394426   -0.90540951380411   -2.80501911014007
H          -1.95626703658586    0.20213424766863   -1.25930590983936
