    19
        -40.92136405
S           0.79385526137562   -0.50023288923552    1.02089010543485
O           0.57927201770708   -1.81657929422057    1.56881842979178
O           1.23262994597469   -0.54443627981609   -0.38510910977742
O          -0.32467746891520    0.40113538244650    1.18240398492959
O           2.01175368263045    0.14139164163458    1.81216660274571
H           2.53857936983682   -0.60731932558467    2.07703206140510
O           1.32682420097715    2.08210434746963   -0.93047564779145
H           1.46030408844939    1.12542179063861   -0.79162944637540
H           1.65849899548786    2.51342679725294   -0.14110173336642
O          -1.77397355402684   -1.93166507977212    0.38940609288932
H          -0.92567160388075   -2.07397961330959    0.86774648302437
H          -2.27443415410541   -1.32221793724888    0.93917125801066
O          -1.29401445607036    1.60190170175151   -0.93456620013544
H          -1.12961816221663    1.32808851777238   -0.00311969549057
H          -0.44810190415120    2.03774682536686   -1.18015607463555
O          -0.90577879504130   -0.72679643439737   -1.68546818375680
H          -1.18642157112497    0.31456819600613   -1.49527323145668
H           0.05727121257254   -0.73750891562635   -1.32997695574912
H          -1.39629710547890   -1.28504942110686   -0.98075873970469
