    19
        -40.91841766
S          -0.06002528844800    0.15542079129800    0.93712771611194
O           0.75847792695771   -0.71847446140634    0.11008589744465
O           0.08580317779553    1.54960997640596    0.51941574989761
O          -1.46143732254765   -0.27400980734273    0.91737108497182
O           0.40275671702731    0.04453257126554    2.41661687407347
H           1.13404329956572    0.69450918269850    2.52468926102904
O          -0.22948239114141   -2.73746274838524   -1.18807011529101
H           0.23880345350433   -2.10380432048047   -0.58685202958967
H           0.40536895829102   -3.00816257702441   -1.85386930056912
O           2.00605954130557    2.11866242611361    2.21619123355793
H           1.77739065508323    2.86149845268034    2.77983040715336
H           1.41215770710222    2.16364812702371    1.43989314874070
O          -0.24712354040639    0.89914259506085   -2.00078013432863
H          -0.17304260292012    1.32802934557524   -1.11651135432427
H           0.59738503518237    0.45458809862336   -2.12007509237221
O          -1.96511517738801   -0.89015027843799   -1.40002425145446
H          -1.37980235087946   -0.15153060584865   -1.80642325537126
H          -1.40842801690821   -1.74568238963467   -1.44601215935464
H          -1.89378978117878   -0.64036436818792   -0.34260368033075
