    19
        -40.91966065
S          -0.20610968218890    0.97198190321110    1.39481459514500
O           1.22591842347182    1.20713318039203    1.15414328742448
O          -1.01715531440094    1.70897491210094    0.43805860021512
O          -0.51599942297305   -0.43560904429816    1.43908325268340
O          -0.51022840519437    1.57122100394257    2.81827134552664
H          -0.30165902248915    2.49417670379483    2.71146878245887
O           0.88387080262125   -2.30178097341294    0.03885739273071
H           0.61178977186715   -1.96032221976187    0.90663584711560
H           0.02682047093052   -2.35706267168732   -0.45030442546496
O          -0.42899171454968    0.78778021220828   -1.87796410260500
H          -0.73417760271459    1.18735318438552   -1.01199613071348
H          -0.44734753354587    1.49695086989389   -2.52338460855441
O          -1.51485344159822   -1.63080780623987   -0.83709569408334
H          -1.42209467895794   -0.91476473727012   -1.47607472281075
H          -1.51745155949842   -1.20471450898915    0.03570949330012
O           1.74856544039895   -0.13652996541645   -0.84817775414928
H           1.48474988071211   -1.12593615286122   -0.51958023217516
H           0.97891870931396    0.18190784398611   -1.42003531792787
H           1.65543488862089    0.46004826582584    0.02757039200439
