    19
        -40.91521802
S           0.97693160408930    0.01632475120030    0.59011907855486
O           1.09234718323206    0.29216585279357   -0.80997359842994
O           0.79767932594750   -1.53076434350777    0.73860066005783
O           2.02460348611665    0.47599726171142    1.44058558602741
O          -0.35602415938909    0.55941578034215    1.13306533981855
H          -1.11855560329816    0.10996365232014    0.60366058365719
O          -0.18543193249169    2.32946598200741   -2.19596541458253
H           0.39904905333428    2.99790988398350   -2.55642482436762
H           0.36084592839703    1.75500998461230   -1.63789228117746
O          -2.02245394585026   -0.75922883759664   -0.21917334693583
H          -1.76286635933956   -0.58192611651175   -1.16895883693632
H          -1.79816371001933   -1.67855926395059   -0.05318919701826
O          -0.96663002382620   -0.31302746480301   -2.56245379021935
H          -0.06945417802874   -0.37098137001929   -2.20169258061060
H          -1.08103101291029    0.62907285502816   -2.75687283789174
O           1.00147171248309   -1.13184943989538    3.30048053024974
H           0.24156198467390   -0.67058946666605    3.66511895356289
H           0.85584019925996   -1.68343906164998    1.71338526319515
H           1.61028045764238   -0.44496064940076    2.97758073308386
