    19
        -40.91639177
S          -0.23576691848487   -1.34867661281489    0.82024390525493
O          -0.64468108810342   -0.79925807017458   -0.61064918110705
O          -1.46153427678284   -1.52901396468143    1.52382064259374
O           0.62108163872135   -2.47977217912331    0.62720788510101
O           0.60376431040055   -0.22495520166815    1.41018284504071
H           0.13952039863340    0.72849411379211    1.29083006208364
O          -2.78518057010324    0.61539166279343    0.56009559394867
H          -2.49297063232252   -0.17566666453497    1.04949605344930
H          -2.90769953119286    0.32503471043482   -0.34670979602780
O           1.29155667140873    1.65541990883484   -1.18737094040362
H           1.65142290583650    0.75778279101809   -1.15940175234690
H           2.00238975903163    2.23942419257412   -0.91472132357705
O          -0.49813782457848    1.92174143062299    0.86164175721333
H          -0.07272561127881    2.00162338285104   -0.01404335670813
H          -1.42889572156788    1.61626259646834    0.72675306675587
O           1.95344716027239   -1.12792463945515   -1.19264594462914
H           0.16256893209884   -0.78055851929184   -1.15118729398260
H           1.71743727913604   -1.71560977560628   -0.44389635680963
H           2.38440311885331   -1.67973916204822   -1.84964585583314
