    19
        -40.92136399
S          -0.16487411522787   -1.37516771144437    0.06354001663229
O           0.02337910943209   -2.10427090449495    1.29309143143384
O          -1.31771291593386   -0.45943462549060    0.12755117012038
O           1.01512428587895   -0.68439110302292   -0.40543144062043
O          -0.54454593556673   -2.43651477482714   -1.05479323613626
H          -0.97820477995882   -3.13643386231958   -0.57488648614650
O           0.85646270052835    1.87882974646752   -0.92558296426459
H           1.19138614649063    0.95665904406004   -0.84318437494848
H           0.14184650081379    1.78666478703378   -1.59367328120096
O          -1.11987826136302    0.71135552982927   -2.28041203907727
H          -1.35844763435112    0.24998557752989   -1.45441255269863
H          -0.84584493661349    0.02894806080047   -2.89543850408525
O           1.20126185371656   -0.00414565033766    2.36411932270990
H           0.76580247750044   -0.85833062969834    2.14213852536424
H           2.04563179391266   -0.02450823377165    1.90506870207359
O          -0.39236390304894    1.61194169131988    1.19796439824326
H           0.27165733537296    1.11679214191911    1.80019753093945
H           0.16853503314957    1.90332539883714    0.30464304398977
H          -0.95921473496948    0.83869553749414    0.82950073779514
