    19
        -40.90792001
S          -1.06158655076942   -0.76219461986095   -0.68210186691088
O           0.02999639555305   -1.44701992576340   -1.53233697988176
O          -0.58657797347230   -0.65045129167866    0.68257965445484
O          -1.45502532201245    0.46490965338895   -1.28707485661359
O          -2.21395288212922   -1.78151059970649   -0.71626849724536
H          -1.99517700898155   -2.48780637473739   -0.04724313018668
O           2.04680266778458    3.03225115348433    2.31118833229229
H           2.96647019582525    2.76672748470849    2.26677250021699
H           1.59670688282843    2.57394586653312    1.58770208619743
O           0.66295587267703    1.67656270646324    0.21500672668431
H           0.29543309388058    0.85386044577939    0.58790392929697
H          -0.10161813167243    2.22121709645097    0.00515080696151
O          -1.32848926063950   -3.12958812691001    1.30633502226211
H          -1.90370538068213   -3.17848330267362    2.07436816748858
H          -0.80737789762029   -2.31134375567879    1.39235017073376
O           1.29997907279878    0.66395995634554   -2.20247409844081
H           0.64649185797377   -0.72260610346926   -1.87970299516217
H           0.64099560666061    1.09980318331981   -2.75062847904888
H           1.26767875989454    1.11776655818609   -1.33152647207797
