    19
        -40.91833711
S          -0.80617269729840    0.18453059967674    0.56365590315164
O          -1.05596013218820    0.25124234456687   -0.85027838174047
O          -1.09187779988681    1.36044061319253    1.32136946467124
O          -1.50549837234803   -1.02671015572413    1.17519025818251
O           0.70919933130835   -0.18112222821122    0.74330405270695
H           1.18526556960829    0.47405434966119    0.10922386752188
O           1.46039772130299    1.52860760957933   -0.94189904486111
H           1.20094051493356    2.37249674948831   -0.50066257596813
H           0.73895418660632    1.32370272764882   -1.54885811208560
O           1.08440261902301   -2.72427661538716   -0.30407267653536
H           1.11747080286718   -1.85217023462369    0.12090015276679
H           1.40086147383318   -3.36098101796542    0.33961022613927
O           0.34934209225002    3.46279143684235    0.48842808803376
H          -0.31068120701697    2.82698496847440    0.82674899652505
H           0.73721781621115    3.88490404596855    1.25754710458347
O          -1.51334679038324   -2.43789444659241   -0.90883063056830
H          -1.50528899044247   -1.62488809239072   -1.43442222924086
H          -0.58324088464640   -2.74731370960080   -0.87142131405308
H          -1.61198526369567   -1.71439894464124    0.41446686064306
