    19
        -40.92315430
S           0.35439888957950   -1.24027327275725    1.10374864978400
O           0.61777488786470   -1.32560787933349   -0.33401604666187
O           1.20700325593441   -0.21547768352780    1.71171069158453
O          -1.04564761765531   -1.07154362676266    1.38601457834662
O           0.81972746842932   -2.60288499065147    1.74140303351891
H           1.76157340102965   -2.48577245975476    1.81667253027383
O           0.67012849861773    1.92887312177739    0.57299703766065
H           0.97284619230181    1.11920715304058    1.15924470089060
H           1.02241721532755    1.67962381707712   -0.36085551367214
O           1.35269774714654    0.86851270211206   -1.63400552495382
H           0.63158144268812    0.90226028350135   -2.27144132378193
H           1.29552776058862   -0.02632320507243   -1.23238383301548
O          -1.35202474892923   -0.27233624117669   -1.77189419743148
H          -0.68478928526611   -0.78697240961818   -1.26557259688817
H          -2.06536283069438   -0.88201377151813   -1.96597566827116
O          -1.72422482296193    1.26046862966411    0.39362842769840
H          -1.66706733410492    0.44965757840054    0.94869919268342
H          -0.38987607105847    1.79662257767903    0.52126173582433
H          -1.77668402881598    0.90397968689651   -0.51923588362579
