    19
        -40.91628487
S           1.06928877406532   -0.68429413780566   -0.22189803951889
O          -0.18118577074237   -1.41143523610310   -0.19718998283492
O           2.22549786617821   -1.65573500114713    0.11147971512410
O           1.37794156365331   -0.02536007295937   -1.44910811033947
O           1.07631703726530    0.31512023249728    0.93903425262308
H           0.09383080320403    0.45276788139131    1.25283740912865
O          -1.37449867313740    0.48253602708594    1.39586692705073
H          -1.66179779367685    1.25193946032777    0.83679399403192
H          -1.55173099785345   -0.30874234557681    0.87157699502753
O          -1.88459062808023    2.48111001777180   -0.24214115238178
H          -1.19812405240431    2.39775015735590   -0.94186181934518
H          -1.75592516697011    3.34596595054495    0.15159025169099
O           0.06119393769879    2.22686119657099   -2.06194828475021
H           0.62464990803330    1.46279235335632   -1.83292137024458
H          -0.17178102547440    2.11216756039127   -2.98543928381463
O           0.69443201602869   -3.25160003948112    1.48195710033180
H           1.86737415057628   -2.31297865338901    0.76043346592472
H           0.05970463524595   -2.72214826756951    0.96288560599014
H           0.62940339641067   -4.15671709323452    1.16805232628179
