    19
        -40.90863230
S          -0.61685323665630   -1.26560767798590    1.18208256354455
O           0.84067590065267   -0.88777190130736    1.46980788166443
O          -1.48267796684564   -0.14086100121234    1.38272554001523
O          -0.72664784462760   -1.93900295266556   -0.06865443158016
O          -0.89605089409976   -2.28903192780209    2.33477549804327
H          -0.99200873046502   -1.76988572809659    3.13040496280424
O          -0.11466922957755   -0.35557811013803   -2.19866040567944
H          -0.63554136736045    0.42202170070438   -1.93764420107119
H          -0.49147441629908   -1.09639916488617   -1.69810408375224
O          -1.42624468865381    1.52778355115384   -0.70300217290177
H          -1.52165676856582    0.96821353503186    0.09313958090660
H          -2.13286509804240    2.17527328230539   -0.67115645848381
O           1.11359946259325    2.45679522446190    0.24762426584087
H           1.69867309432602    1.75016500060982   -0.03760701419830
H           0.25147394613453    2.26190232164795   -0.14209185498503
O           1.96951015561229   -0.18949109493090   -0.68403858686952
H           1.32763395087645   -0.57034542866817    0.62374138106127
H           2.60923838242551   -0.85043054744768   -0.95754078646543
H           1.22588533836446   -0.20774907086358   -1.36580167848604
