    19
        -40.92246924
S          -0.03607799006337    0.35350400716765    1.00919467750793
O           0.28483109662719    1.69196954884972    0.57099769025739
O          -1.37931151086883   -0.06696423239271    0.74705025352358
O           0.96365822604145   -0.62303123117751    0.39565544304993
O           0.25081108213977    0.22557789866221    2.52127258441714
H           1.16598822507015    0.58933445269835    2.62180422030077
O           2.54980677496846    1.30962766071780    1.97193160758079
H           1.98393663280977    1.81494752661222    1.36570128252118
H           3.01516501645872    0.66204771783900    1.43503991993194
O          -2.03212658257454   -2.06755696943794   -0.92609783108594
H          -2.13506517213001   -2.88040916110114   -0.42845896682918
H          -1.96892873400671   -1.34716946783352   -0.27046831167153
O          -0.81250138190424    1.31415895141071   -1.86651806447222
H          -1.74411745627501    1.21339017677735   -1.65569230026277
H          -0.39320854335211    1.66433624373098   -1.06180433706984
O           0.23870911782214   -1.11588658211911   -1.90664065347305
H          -0.58135875562213   -1.63710437197844   -1.73468503453372
H          -0.08170237210989   -0.21234748583403   -2.14609020990296
H           0.71149231654178   -0.88842468354597   -0.64219195953441
