    19
        -40.92221093
S          -0.52526495243703   -0.44777750833964    0.79948946024024
O          -0.63826255364771    0.95748043915958    0.15275928044503
O          -0.18857181270750   -0.25323626678167    2.17475675636479
O          -1.69255187038957   -1.21880717306246    0.51065624516215
O           0.65712904248622   -1.09005198850989    0.03671493477224
H           1.50792568255463   -0.58406648643265    0.27029780833387
O           1.24226727184016    1.98332945469845    2.08492221950966
H           0.67145490857401    1.23526645009254    2.35048916482528
H           0.69467718811461    2.53392291813479    1.51955547491366
O           2.69024653307614    0.28884014665362    0.70027635423616
H           2.26566448732698    1.03602004509242    1.20131464514146
H           3.23278823086279   -0.18312532059697    1.33638377199111
O          -0.58121916045239    0.31640654948052   -2.30293970094343
H           0.26615851411774   -0.12765314676503   -2.39519957462388
H          -1.26570845137271   -0.39768602080447   -2.35994888310381
O          -2.30293922692558   -1.65755095395125   -2.03337149636171
H          -0.66731063505023    0.81066687183187   -0.85406376746006
H          -2.11624397237429   -1.66723372181142   -1.07145756645072
H          -3.25023921363597   -1.53474427810889   -2.12063513699010
