    19
        -40.91904990
S           0.77168530666999    0.81178500867236   -0.32463380873849
O           0.13240570462852    0.63418335829326   -1.60428707737431
O          -0.33963763513392    0.98964306545651    0.72767411846540
O           1.67490206282134   -0.21324858600094    0.08449544114723
O           1.50270873398000    2.17719112758094   -0.31255831023171
H           0.83724490404571    2.82474088826004   -0.65420723896164
O          -0.71254314294161    3.17127622496846   -1.25659233865631
H          -0.70028268391625    2.32304395181910   -1.72837590783444
H          -1.35762742120360    3.08050189136544   -0.54989251623106
O           0.09783687514375   -2.08109057168651   -1.38411194501496
H           1.03283023561129   -2.16310449990582   -1.17655300375849
H          -0.01926807886011   -1.15419254053167   -1.64703146462330
O          -1.09973131750146   -2.56127280620826    0.97282095143078
H          -0.69005407526604   -2.47625728205747    0.08245299951258
H          -2.04562967701892   -2.47455069148684    0.84598082405427
O           0.24267082115357   -0.78001583275602    2.37946823557886
H          -0.29473310489687   -1.52466690856352    2.00495745755041
H           1.13235642050769   -0.90269323249702    2.02401406053194
H          -0.16513391774637    0.31872745527794    1.51637953327960
