    19
        -40.92079117
S           1.18338150436963   -0.86818499605927   -0.23126773563054
O           1.08201906686262    0.25395559880846    0.69153015062295
O           0.94750068870914   -2.15405453683582    0.37306381403981
O           0.35982697380414   -0.64714567363603   -1.42151336661647
O           2.68457014131479   -0.85397190496918   -0.73228380400568
H           2.76005009568151   -1.66471470766422   -1.22576821848114
O          -1.65277882630872   -2.08574391712941    0.83967806751253
H          -1.84943967832764   -2.74429959951481    1.50863481725452
H          -0.70414858081561   -2.20041760211615    0.61416371115552
O           0.86297709575193    2.61646191725187   -0.42597094563487
H           1.14758082642350    1.77354884394764    0.00003576723753
H           0.82269686224517    3.27490715508703    0.27042631817466
O          -1.52634673833363    0.52621612165138    1.16922324075093
H          -0.55638828958833    0.47962662713994    1.29120991990962
H          -1.80178287630059   -0.41876706785044    1.11124018697541
O          -1.18141750374594    1.27523042185246   -1.18264835116920
H          -0.47514195672602    1.98699168676163   -1.02508433533994
H          -0.59287539441920    0.43484380118705   -1.42313716233596
H          -1.51028341067488    1.01551783209161   -0.20153208438029
