    19
        -40.92044780
S          -0.04703050873839    0.52985459024881    1.50557819360191
O           0.60685343407326    1.57647771559845    0.72400107785155
O          -1.47967667134851    0.51162178324887    1.28229329486217
O           0.58592975693959   -0.76075476638476    1.29325629014453
O           0.16456262552553    0.87943892722711    3.03486089434967
H          -0.54271030350377    1.48854619588326    3.22445840244400
O          -0.04039222506274   -0.52985055900152   -2.09045358872858
H          -0.66317227371486    0.27951957711421   -1.81359374967305
H          -0.36797677531634   -1.31653666879641   -1.51702247752972
O          -0.70153307685397   -2.26594564890878   -0.36713205438816
H          -0.32517211270057   -3.14642722222501   -0.31281248486296
H          -0.31513322235219   -1.74246619107009    0.38289236558846
O          -1.35693484812686    1.38364768148436   -1.14742548421215
H          -1.63343535973161    1.01972500093993   -0.26736812998700
H          -0.67147743453490    2.02161347233843   -0.90752053772414
O           2.04826931980040    0.12086435539686   -0.84236665785891
H           0.89734971163155   -0.27563420507743   -1.69024108592418
H           1.62925297839567    0.82053664464298   -0.27459912911087
H           2.21242699608455   -0.59423068235862   -0.21680516968975
