    19
        -40.91721616
S           0.40990670468206    0.00343162543502   -1.79446022492006
O           0.94469467450652    0.02906339567553   -3.11300878295351
O           1.37415472254525    0.33020691452076   -0.73081541298603
O          -0.83088226049151    0.72785669455613   -1.56638852863956
O           0.03422003022339   -1.54547264220227   -1.50561021249500
H           0.50274040980918   -1.96446389097704   -2.21923724005096
O          -2.02569874054098   -0.71806175120785    0.18478833480948
H          -1.69321967931774   -0.13226750010603   -0.55113838506737
H          -1.68105372538809   -1.59025265389461   -0.03025748447987
O           1.40291324894462   -1.00218406607694    1.47513041949871
H           2.23823868803892   -0.80641212839810    1.90385213197052
H           1.45590459134232   -0.59694424054514    0.56687767514575
O          -0.68875132700025    0.31848910824672    2.03104371601489
H           0.15813750799420   -0.26234148577992    1.97465500791312
H          -1.35475193668735   -0.14551241722382    1.35803751110587
O           0.07667593884092    2.18998170715184    0.54269015092378
H          -0.41624215164304    1.20345010086987    1.52730099375415
H           0.71578238029080    1.61504885418310    0.05022510480768
H          -0.62276906621581    2.34638437579811   -0.10368476442746
