    19
        -40.91568345
S          -0.78337152660541   -0.67427216664588    0.24643787515466
O           0.21969421922252   -1.68554080020016    0.32234506844132
O          -1.33752534849611   -0.41769404555725   -1.05675384452753
O          -1.89976770298952   -0.99033127699181    1.25978859593152
O          -0.22225700585609    0.66667613569665    0.78748002224412
H           0.24395104460449    1.10931551647098   -0.02823614890987
O           2.51170845825872   -0.58006194979688   -1.14650991865616
H           1.94231471940262   -1.35631212099822   -1.15556431740436
H           2.79552221421513   -0.49746693843793   -0.21515459055440
O           2.38583756995802   -0.54371541567619    1.56836301567957
H           1.65329344186461   -1.13996207699976    1.34729420565755
H           1.98236677036028    0.24959258105241    1.92768888131420
O           0.80283053942295    1.38709759052436   -1.37712527515413
H           0.12157330642739    0.99985725579174   -1.93864253477381
H           1.57026674347694    0.75011203499662   -1.40337061595507
O          -3.37595322954447    0.83164464247420    0.13612059455754
H          -2.86796315237572    0.51328242722354   -0.62982281767749
H          -2.63697122334813   -0.36089855567609    1.05578802340480
H          -3.10554983802558    1.73867716272050    0.29987379125294
