    19
        -40.92179420
S           0.21736220591524    0.20891048657603   -0.91438976833541
O           0.85646781024386   -0.79860127241782   -0.09156539490735
O          -0.92495538709022    0.85455176853916   -0.08198805105744
O           1.09400325065314    1.21565146287606   -1.40920847555283
O          -0.54626864311430   -0.46463737356197   -2.04936199354257
H          -1.36252382072445   -0.93520073730268   -1.63677854354065
O           2.43379511935066    1.00912535286631    1.15957132209112
H           3.03114423001793    1.24260906626393    0.44429848062967
H           1.96071181499287    0.21791561270882    0.85069445597227
O          -2.47750818104846   -1.48893012436749   -0.77885981420534
H          -2.79842002168358   -0.71526021416310   -0.30600776535265
H          -1.98784112297516   -2.03154289607223   -0.11117849509507
O          -0.80221301107803   -2.62193420525522    0.91243889273701
H          -0.11149203163420   -1.97420743509356    0.66328358681463
H          -0.42687437527460   -3.49093199099157    0.75779797737883
O           0.43526983435440    2.74862201778424    0.90664946298479
H          -0.51322918238638    1.65580714846695    0.39594289783241
H           1.20342471970934    2.20140867846396    1.20099808335497
H           0.71914678259121    3.16664466528257    0.08766314177020
