    19
        -40.92217257
S          -1.12504787552830   -0.42883905179788    0.67635386833818
O          -1.04344047807522    0.67027461845279   -0.26959067042099
O          -2.01733127092641   -1.49423935555928    0.31964937252751
O           0.21510198280707   -0.89813236314586    1.05026827552821
O          -1.71071290396810    0.23661923880425    2.00795111468489
H          -2.25953359828212   -0.43974803158678    2.39369500443149
O           0.82079274695560    0.25190969135805   -2.14920786522920
H           0.60274063879611   -0.70622336893379   -2.15211493392249
H           0.00358132525468    0.66125038129239   -1.81320783316344
O           0.49514637405666    2.41675227959558    0.92084367951897
H           0.27179588548744    2.41968931398251    1.85365426410883
H          -0.23100595704775    1.92891637395272    0.46842891863762
O          -0.11582464162679   -2.15542668241075   -1.46556538290938
H           0.45876803723790   -2.66724872090790   -0.89129653971142
H          -0.92758103748932   -2.00242081702802   -0.95027705412643
O           1.97703590580627    0.51977819916636    0.04750344308498
H           1.61727079553562    1.40611321687797    0.38664965439982
H           1.33094777526741   -0.16104970977510    0.53044183958941
H           1.63729629494292    0.44202478895592   -0.96417916542423
