    19
        -40.92079116
S          -0.99331963931644   -1.04812593500271   -0.34876569992553
O          -1.90441996211420   -1.22235608018239    0.75293618153922
O          -1.19215903074246    0.22375684060183   -1.04637967478050
O           0.40796975144920   -1.24235480342301   -0.00303426988353
O          -1.31557568558443   -2.17945866486203   -1.40758809762386
H          -2.25862525930653   -2.11361302368790   -1.52088277789184
O          -1.41541836990857    0.92038193167777    2.22109243072766
H          -1.72634966468779    0.74375166574922    3.11109238805318
H          -1.69764919341045    0.15406815984928    1.67618663162551
O           2.13580362002913   -0.33998664926287   -1.75761474573151
H           1.51133903197449   -0.85953972578766   -1.19809293094680
H           3.01843578346452   -0.53782324698265   -1.43809572619881
O           1.08723580161865    0.92439339098747    1.39384895891600
H           1.00556808276187   -0.00405602974432    1.09547529603220
H           0.22685013412749    1.10406063052759    1.84084907954004
O           0.79877374206886    1.69161628656345   -0.96013146053947
H          -0.11838532622218    1.18394637629439   -1.07177096499009
H           0.98427198169999    1.54350042662412    0.07945327535219
H           1.44565421210831    1.05783844006053   -1.41857788327410
