    19
        -40.92221087
S           0.45004960170778   -0.59567276978075   -0.74314444305543
O           0.54411496240775    0.94605621848041   -0.66096548984658
O          -0.30004518470767   -0.91914137515616   -1.91500221708142
O           1.74491582974757   -1.18508258444836   -0.60719024909904
O          -0.35742038550177   -0.96613574892930    0.52828464200279
H          -1.18830820805176   -0.37776102010509    0.52537084020947
O           2.10107579200244   -1.14024494132745    2.02506195485195
H           2.12814275479706   -1.34940691659138    1.07036430545941
H           1.25345744306529   -1.46969064571604    2.33431793344419
O          -2.68442498002627    0.20117746679445   -2.22561800929750
H          -1.78117076201759   -0.17435300906122   -2.28245846709415
H          -3.27920480232024   -0.48518227702135   -2.53411337817517
O          -2.27323482607279    0.68708580149976    0.32932354978959
H          -1.82887742614663    1.53933262072742    0.33289714411809
H          -2.58457567887356    0.55077448467138   -0.60134010974689
O           1.98958572581179    1.40159812104517    1.38291532509389
H           1.12277873891033    1.19289570683140    0.13836228858059
H           2.06346155852213    0.49187279128368    1.77862237664742
H           2.87967984685744    1.65187809681438    1.12431200319308
