    19
        -40.90733239
S           0.80865072373463    0.40367116874445   -1.64952680752119
O           1.92969771927857   -0.29086110653395   -0.87117402526508
O           0.00284925291969   -0.56783113575224   -2.31468307031590
O           0.16613455831365    1.37445790162799   -0.82397296532320
O           1.60188483987192    1.19450040929822   -2.76450376004490
H           1.75869772110986    0.58189861125443   -3.48022695338986
O          -3.11532519328287   -0.76221939136313    1.21845971000728
H          -2.44971496649213   -0.16178897762672    1.58363738604930
H          -3.47978668081495   -1.25056289555179    1.95845798259928
O          -0.77185536075085   -1.75178412418397    0.03522943940039
H          -1.73470327121958   -1.67124682191066    0.12966056611317
H          -0.56223401846960   -1.51252706395989   -0.87817899458794
O          -0.48936255606637    0.37473957530871    1.61113308679936
H          -0.56740128419058    0.96465981066648    0.84527623708047
H          -0.47160469595511   -0.52439312545736    1.20845455220950
O           2.07998015575353    0.91175350762173    1.34503155164355
H           1.17381329177677    0.67922087694485    1.67893219016412
H           2.07554442484351    0.16184662153162    0.04337461358068
H           2.04473532959079    1.84646615928729    1.12461926080094
