    19
        -40.92085432
S           0.95867794233275   -0.87933480555529    0.57907653836554
O          -0.11608571309363   -1.29067519360133   -0.45572342159714
O           0.85226853939991    0.53945138630698    0.81384143990896
O           0.87669179320052   -1.68897631618134    1.74878144110199
O           2.25343119377334   -1.17823235764961   -0.19498088679191
H           2.15496090947890   -0.67210021867738   -1.05345112689033
O           1.51979234237427    0.12418888734810   -2.31910116379685
H           0.91994227652010   -0.52364922691189   -2.69853213302942
H           0.95611862936148    0.86863125392657   -2.02219348317756
O          -1.45512484561867   -0.46566991213592    2.49441111825755
H          -0.56616743633795   -0.84562749612659    2.39817771154481
H          -1.99038285653494   -1.13785129395719    2.92325680016953
O          -0.08156131152662    1.98985624543881   -1.10488844396740
H           0.29300418184883    1.54848443530597   -0.30469413431541
H           0.19752791604063    2.90642658247040   -1.06502950331613
O          -2.08301945896805    0.21609362282535   -0.02566402835379
H          -0.98541448127955   -0.74126215660735   -0.34054031632726
H          -1.99643964886360    0.17348709999635    0.95123735605013
H          -1.70821997224485    1.05675945379190   -0.32398379404088
