    19
        -40.92115645
S          -0.07590666842395   -0.36709278404490   -0.99220277688387
O          -1.48309226108083   -0.66528471816278   -0.76628545757546
O           0.19394552952411    1.05247099424592   -1.03527735562751
O           0.74582752428697   -1.02904705693101    0.05146427970651
O           0.35792811701562   -0.98675981453665   -2.34888309177074
H           0.11906818925112   -1.93533862137340   -2.24919795175696
O           1.83424282898344    2.26535373875001    0.59440954617535
H           1.35107829849335    1.86746183539496   -0.16922793355342
H           1.64155399296419    3.20482160776780    0.58487035114301
O          -1.70142801205808    1.05097556397616    1.20206965450570
H          -1.71852880100096    1.88003832496403    0.71693316499022
H          -1.79285409170364    0.35298357323658    0.51029871353863
O          -0.58191445988893   -3.17020201051099   -1.23821519320078
H           0.04283448318025   -3.15180822827487   -0.50565448492793
H          -1.28074399044829   -2.54144780322925   -0.99863168852074
O           0.66242144636547    0.47341427252902    1.98260422343932
H          -0.31610894808715    0.74651715825026    1.84672669579731
H           0.77668439364225   -0.28687530863325    1.19744057944732
H           1.22499243898325    1.23981930658047    1.61675873507337
