    19
        -40.92095061
S          -0.61004721880597    0.40277466559497    0.66333804875815
O          -0.79909701624776    1.81650775886761    0.74279424054434
O           0.90963016211561    0.12143080282838    0.78039449833044
O          -1.33998612965216   -0.40177591117082    1.59103128207696
O          -0.93420806544462   -0.10809947247289   -0.76363310570051
H          -0.27399048986002    0.35566455147369   -1.38042817266778
O           0.91643021196657    1.08434874384330   -2.03784772286352
H           1.71336699429503    0.82417684508026   -1.56710635360107
H           0.77053671298565    2.03581237925898   -1.80488938870437
O           0.38167902469695    3.44079058604620   -0.99498063285339
H          -0.29214180333218    4.03430956819728   -1.33188223703238
H          -0.02021334484094    2.97551757492847   -0.23239781042409
O          -0.98906285156809   -3.03273386058462    1.67722078385621
H          -1.29466870260166   -2.10203226003327    1.68104362853266
H          -0.83847206471212   -3.26895693307856    2.59445603607303
O           0.92027272066814   -2.30530322160872    0.01852425775298
H           1.02920329189098   -0.85910185576820    0.54400427538897
H           0.28859516114039   -2.73812567549970    0.64662023156149
H           0.46217340731974   -2.27520428588725   -0.82626185906345
