    19
        -40.91606930
S          -0.39524185306611    0.76927877154618   -0.48967439842793
O          -0.66391955957436    1.22737363832697    0.98054011034455
O          -1.19591971574590   -0.39426666616779   -0.72387625027890
O          -0.57136070050903    1.87577523542041   -1.37487265390896
O           1.08836622266815    0.37352347274559   -0.47491973648611
H           1.20893483456926   -0.25485492144581    0.34074494120832
O          -0.62887766817572   -2.78654052765889    0.58246530480474
H          -1.22975957753773   -2.09710707369723    0.26489876647321
H          -0.17223469038899   -3.08925018792932   -0.21922232932150
O           0.52615523015726   -2.26474413722814   -1.87342866635687
H           1.35681181369820   -1.78562929528547   -1.90351347401228
H          -0.16452234039102   -1.60008894295820   -1.74001548248412
O           1.09695043886905   -1.09775663996533    1.55682436558350
H           0.49480235939174   -1.85057636542112    1.28049666410702
H           0.60702724637123   -0.58381850149614    2.20429586326707
O          -0.06523768999846    3.68840014906146    0.46885274498832
H          -0.42105611394841    2.19100656628354    1.01483078406775
H          -0.12054534268055    3.32128981780799   -0.43410357619949
H          -0.75037289371050    4.35798558807999    0.53967703263409
