    19
        -40.92267750
S          -0.62749890763867   -0.68209568332264   -0.52501226057695
O           0.08625477218671   -1.78623605385142    0.09930819594418
O          -1.50319168317752    0.01361584305211    0.39029618238825
O           0.34280760476088    0.26006666755884   -1.13625952234711
O          -1.48934175550551   -1.23450548322055   -1.69432347221037
H          -0.83218791977797   -1.71623242017987   -2.24419411938078
O           0.82531237688239   -2.20458947782166   -2.45772475341392
H           0.85466494883526   -2.40739864896404   -1.50907278255267
H           1.24473320409427   -1.34287512205610   -2.54944471586598
O           0.85520356045849   -0.41258704358774    2.19466004542180
H           0.03478057936902   -0.30215455026953    2.68315075757127
H           0.65066442832411   -1.06775008223148    1.48539473503129
O          -1.14563661999220    2.50297870583894    1.08415114762997
H          -1.54916850209766    3.07394706595194    0.42753885468686
H          -1.45252021475272    1.58486328904409    0.88109307353411
O           1.20766242722672    1.62144058419780    0.71450062191591
H           0.92362008435772    1.07458204494898   -0.18028758769074
H           0.35825443434892    2.15796146350224    0.91917110010108
H           1.21558718214873    0.86696890140331    1.41705450980854
