    19
        -40.92025498
S           0.14234413597148   -0.86273224997450   -0.24782184702046
O          -0.21502420739190   -0.30186832307979    1.04599725159717
O          -0.85758175918431   -0.52650290864077   -1.25950783818031
O           1.48722762534771   -0.42956420162113   -0.63990949389387
O           0.21254516411020   -2.41165224567371   -0.13113942677815
H          -0.70528660166207   -2.73300133778175   -0.28369029229067
O          -0.88771869232002    2.00357895923486   -0.56225506742230
H          -1.27789158941641    1.91917335693699    0.31331732593595
H          -0.97721369844770    1.10942199675478   -0.96737461924722
O           1.37504205850699    1.35821191325490    2.24496328817334
H           2.08666005038105    0.86097837035437    2.65273030783526
H           0.70905695962347    0.68806829867650    1.93744199382653
O          -2.27243770980595   -2.71101706997771   -0.92601974814346
H          -2.38864380844334   -3.19431655978922   -1.74743983183945
H          -2.02622998996974   -1.79652671625880   -1.17171004760138
O           1.62241358867602    1.98397646894917   -0.19437467411809
H           1.68953948190696    0.95009664133854   -0.48346543752955
H           0.63367448656881    2.18482278882236   -0.41228120468708
H           1.64952449554776    1.90885279847533    0.83253936138914
