    19
        -40.91791087
S          -0.16203854230477    0.03091129900543    1.08849146155550
O           0.79897358419846   -0.33413993803028    2.07844920508387
O          -0.74145896039274   -1.04804593841551    0.33115091753411
O          -1.25175791236660    0.90779202189880    1.69277331353827
O           0.51562111709428    0.99351950530039    0.05138797928649
H           1.03526279699592    0.35463274952286   -0.55933610970183
O           1.55349880978173   -0.90804642446742   -1.23689135195201
H           0.77380355462476   -1.45703260607742   -1.08036089953991
H           2.22462871316893   -1.22469273730423   -0.58822659966493
O          -1.43184029154061    1.71241162637397   -1.79691449416289
H          -0.68879765734534    1.71384043646204   -1.17497743805942
H          -1.08276623055218    1.43728476452583   -2.64691044388981
O           2.91809112220098   -1.53890566779778    0.94589637757038
H           2.18669676159653   -1.21151619355707    1.50418291973399
H           3.71846616622408   -1.13276872847817    1.28420843876059
O          -3.00984357731350    0.40025527012898   -0.04219025738925
H          -2.69284155354891    0.95279525568681   -0.78460702666046
H          -2.58646707753744   -0.46386516354352   -0.15191637501007
H          -2.07723082289291    0.81557046879374    1.08579037294422
