    19
        -40.92218955
S           0.96573716456788    0.60243177174266    0.20966813926640
O           0.85548186779665    0.19855049565268   -1.18826081127843
O           0.00479047298858    1.65544275460976    0.53816538133656
O           0.82134219735369   -0.54568015294145    1.09892325782217
O           2.37986226832401    1.21467972793972    0.42993658992381
H           2.96845669561101    0.46696734969039    0.19631348844407
O           3.04533348351344   -1.20981471761194   -0.34700143983444
H           2.47247601260111   -1.03654953884191   -1.10568440449876
H           2.44665498778558   -1.50713607649817    0.35097207377112
O          -1.58324294508595    0.05676879685339   -2.05711768284938
H          -0.62143395306362    0.03165939450251   -1.80315633128696
H          -1.64919330224807    0.67792877174351   -2.78564581325313
O          -1.63869837432352   -1.14646742385637    1.65690382443929
H          -0.67043732464762   -1.02737531210016    1.46121051156968
H          -1.72857695969541   -1.06823374484441    2.60914051268034
O          -2.30222487084047    0.83108850512741    0.23525368784179
H          -2.18552381524847    0.49949459556810   -0.73834225946950
H          -2.20928181021873   -0.00935738649127    0.83219570377733
H          -1.37152179508241    1.31560218993099    0.40652555151335
