    19
        -40.90863209
S           1.48623289929941    0.66613245700629   -0.85191116997229
O           1.82625503152583    0.11465053351684    0.53714038182331
O           1.03019357907141   -0.38219423523089   -1.71691374298785
O           0.65108801248943    1.81587178607753   -0.74857252817935
O           2.90137991860556    1.11207572541334   -1.35478311236983
H           3.36473030560228    0.30872657216186   -1.58211177794739
O          -1.52481812658283   -0.99787542586327   -1.23754601400384
H          -1.89951986868581   -1.55724532701939   -1.92040105265380
H          -0.59578833102275   -0.82879898865879   -1.49135059101228
O          -0.65446606343299   -2.38100938107291    1.11766916068843
H          -0.49979018029175   -1.65370265693673    1.72595614854909
H          -1.06003059765652   -1.99016279013877    0.33289788698001
O          -1.81370307748897    1.26928116431054    0.27263825979308
H          -1.11562885524269    1.74344576590792   -0.20615311375194
H          -2.00705447988515    0.48433311644341   -0.26641003633928
O          -0.18243694176083    0.35897080879106    2.05475902160008
H          -0.02472743048196    1.04052198637536    2.71167077735292
H          -0.90762143548090    0.70716493786466    1.44561289342730
H           1.02570567185957    0.16981396050408    1.17780860901406
