    19
        -40.90984753
S           0.23143530754114   -1.22255042588185    0.02028751204238
O           1.50615759221841   -1.02595138358755   -0.86329625935734
O          -0.89825569393550   -1.12469987847461   -0.84760153514901
O           0.36667665422578   -2.38244558953401    0.83391737163752
O           0.28867873401643    0.02090995745960    0.94744093439464
H           0.36332539975801    0.82685156114145    0.33150077562419
O           0.46154891154192    1.76554305779425   -0.89656710673231
H           0.90429437889402    1.24906572608811   -1.57648002005920
H          -0.47196681584815    1.85104269420287   -1.16698295485814
O          -2.11264499676715    1.17347751658097   -1.40627530846630
H          -1.80587065300226    0.25496838734802   -1.26521417446101
H          -2.93062409359949    1.12264407753459   -1.90368656233036
O          -2.32128061538371    1.43732553269382    1.46341444132419
H          -2.35901938901705    1.49231742872451    0.50024012354337
H          -1.53233511433131    0.93359098042314    1.67609835379811
O           2.92857133454989   -1.74179551200170    1.18151085168243
H           2.13283410650291   -2.27465612377160    1.35332612919330
H           2.26384427067231   -1.26263053330627   -0.26949842625518
H           2.98463065192383   -1.09300748339693    1.88786585447725
