    19
        -40.92221082
S           0.86104249788782   -0.60653026966201    0.00875298695167
O          -0.59280605309761   -1.13067483821163   -0.05505677724157
O           1.40719338566511   -1.00609865954760    1.26672626897954
O           1.58025054064984   -0.97822297338187   -1.16895900395188
O           0.68125346493543    0.93355102824221   -0.03185302660259
H          -0.00171623925754    1.16395546188378    0.68698658549824
O           0.07620657285916   -0.37847594748606    3.47406222702013
H           0.58919009411855   -0.76910089579186    2.73622875543204
H           0.72085842009753   -0.06350817565615    4.11068252384741
O          -1.11129085249672    1.21215253965023    1.74386109431803
H          -0.74252814956473    0.70404942258780    2.51032267450362
H          -1.83910566410834    0.68285858323820    1.40642942550435
O           0.77587427098884    0.85737185138940   -2.91288239904348
H           1.27282342242014    0.17592817713578   -2.41831564323773
H           0.85244112347978    1.65906758912992   -2.38935166917000
O          -1.42555097876185   -0.46118107493778   -2.36455128969334
H          -0.98061891670238   -0.89932702821074   -0.96653413726261
H          -0.68342632213289    0.12128717234423   -2.68030882247116
H          -1.44009061697771   -1.21710195270794   -2.95623976333838
