    19
        -40.91779634
S          -0.33305309118856   -0.63732311357786    1.01407520169252
O          -0.36686915860967   -1.00224936464648   -0.47559157219646
O           0.95646988237522   -0.08923518418164    1.33188962956698
O          -1.44915288174545    0.19874221881746    1.34455941136667
O          -0.51910101528418   -2.00700705519997    1.70517142481417
H           0.17682669477495   -2.57884422562754    1.30536695097072
O           1.95598639914059    1.71054255725210   -0.34093062397977
H           1.74692192472724    1.02316212085270    0.32679211514060
H           1.92634244787188    2.54906304577910    0.12425567717317
O          -1.82678256723747    2.34398388357156   -0.16293823411238
H          -1.73217783085590    1.64149314981680    0.51542239762870
H          -2.76749334285691    2.42917643405916   -0.32903771720027
O           1.13026390721001   -3.19136640966919    0.06097754085227
H           0.81274604817672   -3.99834508387861   -0.35236015001007
H           0.84196714105004   -2.45215093124079   -0.49608948519628
O          -0.15643272830031    1.08032732852344   -1.74635292445171
H          -0.29075674669493   -0.07272754709660   -1.12165194508482
H          -0.82972378945507    1.66020271642419   -1.30298954960451
H           0.72401873686800    1.39255542985938   -1.40056814759453
