    19
        -40.91039651
S           1.23305728755579   -0.40772042267956   -1.43431962933489
O           0.77701463019542    0.84207339964630   -2.00860817448234
O           1.84499038141018   -0.28490322817055   -0.13589410245178
O           0.14177549538591   -1.40591145954154   -1.42335336047401
O           2.32215648842006   -0.99307966023763   -2.41146566113403
H           1.92275156962435   -0.89888500370203   -3.27135996546463
O          -1.16031652196362    1.61383634721969   -0.48180890274772
H          -1.80718235451247    2.07371196604112   -1.02037025747152
H          -0.38621164600478    1.41980386059953   -1.07327174248840
O          -1.22203997877812    1.34541774164208    2.37117872408941
H          -1.00660350108675    1.83134454976200    1.56925872098747
H          -0.44590204874945    0.82428986942794    2.59696832507429
O           0.50237537565371   -0.91260280374858    1.99294762699992
H           0.82870494564434   -1.75150480101450    2.32303919159186
H           1.11271453603026   -0.64211463958754    1.25974461630220
O          -1.45467599540799   -0.80745321261840    0.33329039008512
H          -1.53679954643443    0.18613081771843    0.14082949617406
H          -0.81143774993771   -1.15863402738925   -0.47868449538207
H          -0.85437136722334   -0.87379929401791    1.15187919919185
