    19
        -40.91357550
S          -0.43669964594651   -1.39806953467684   -0.59917450211100
O          -0.47877367637165   -2.07732268188462   -1.85216880281276
O          -1.23896490016712   -0.20231881618986   -0.51010186625548
O          -0.75507507101183   -2.32140003667416    0.56052248745550
O           1.05430164183007   -1.00233663558082   -0.27316955200325
H           1.40976811764345   -0.49344218596820   -1.01286560253044
O           0.75631207835103    0.17365207868188   -2.70554516158843
H           0.34555487736159   -0.70141553776513   -2.78543093731549
H           0.15536392672343    0.78643386106951   -3.13698567307998
O           0.87480535883015    1.10469216976317    2.23182130500326
H           0.79091789301299    1.46188142860691    1.32266392634946
H           0.86222476156592    1.85936981114401    2.82347040451915
O           0.33277430584771    1.96018712204446   -0.27730651474340
H           0.94401868242615    1.85693496250951   -1.01071620745250
H          -0.35410488584218    1.27871976421753   -0.40528117995556
O          -1.21506219358111   -0.53198561332640    2.26063434970396
H          -0.92716338124990   -1.70467469978432    1.37727484333597
H          -0.37510235102521   -0.01676121290223    2.36387537947900
H          -1.74509555907826   -0.03214426361912    1.62848328372028
