    19
        -40.91688699
S           0.10448463426118    1.23199850697951   -0.79041043699812
O           0.98525201699014    0.09301139656546   -0.84501424437022
O          -0.95790345340666    0.95558512239205    0.34070417196846
O           0.73154369103514    2.48155601761302   -0.53278696734000
O          -0.77172235432230    1.26480405098328   -2.03746616642850
H          -1.03671125588274    0.29845971266455   -2.21916628499326
O          -1.44430960266097   -1.18488802482398   -2.24562583153368
H          -1.20289447598304   -1.55706752199281   -1.36349585168160
H          -2.39501943734696   -1.29070919109337   -2.33353522221113
O           1.67467225527761   -0.97854468888538    1.43188791525410
H           1.50153155973504   -0.65622695212749    0.51870853798422
H           2.58101286272910   -1.29113524261881    1.44256386412225
O          -1.03759519677488   -1.81782593734400    0.31744920261553
H          -1.22949457771850   -0.89933850050649    0.55327481730383
H          -0.16290020957328   -1.99738731879728    0.67880947789815
O           0.73311165849508    1.46686608111857    2.16381248443572
H          -0.47713045390230    1.19978676880403    1.19530361831950
H           1.18830529552598    0.60030699880852    2.12681922210419
H           1.21576704348724    2.08074872230427    1.59816769353729
