    19
        -40.92079122
S           0.28227745378616    1.45673991949053   -0.07717607232105
O          -0.67295069266514    0.78985485091155    0.79680181716919
O           1.55879528419024    1.72202380027191    0.53462780433461
O           0.40723308745514    0.75296814755472   -1.35516588753547
O          -0.37607152610244    2.85594435039443   -0.41405721015237
H           0.31667645525066    3.32039775098174   -0.87333480778433
O           2.60456327838695   -0.69831227929267    0.71858210085778
H           3.29543598178979   -0.67097289032984    1.38326697507966
H           2.30327560285501    0.22842935059334    0.59925177419498
O          -2.74350661555981   -0.28069335190515   -0.40614738676174
H          -3.30917576406617   -0.67194060469710    0.26261863525314
H          -2.09177973639369    0.28419209528820    0.07245126768545
O           0.19119384756536   -1.72521098344630    0.98133855379375
H          -0.17432958813437   -0.84623757373089    1.20868135170640
H           1.16271395276739   -1.56741478870325    0.92199006128230
O          -0.67893073909653   -1.47095576269927   -1.34045277804254
H          -0.28558958558067   -1.76588050257398   -0.39409461389424
H          -1.61918812741618   -1.15329145381438   -1.12824468474500
H          -0.17064257902231   -0.55964007428590   -1.49093691011828
