    19
        -40.91070913
S          -1.44601578353595    0.62672816256753   -1.03272303046497
O           0.02093993349508    0.31303690610560   -1.33153094852490
O          -2.07446266162563   -0.52168205931597   -0.45241351353196
O          -1.53418762993457    1.87012753340191   -0.34575915156074
O          -2.07942095812596    0.82340998045502   -2.46631440449896
H          -2.51213906172448    0.00241466932376   -2.69041772429894
O          -0.17253446561525    1.95792395058231    1.99218236751760
H          -0.74923914275042    1.95532556674825    1.20734955272416
H          -0.13756823408930    2.86599281721007    2.29890593436470
O           1.67523107167285   -1.97160345624845    1.13994507238055
H           2.55462334327772   -2.34426211746512    1.05881651865046
H           1.79152964846418   -0.98692285062333    1.13922998814541
O           1.88857674394971    0.64640659303079    0.82803327285644
H           1.53481129140067    0.75543198905982   -0.06193301897463
H           1.25262695511136    1.10537144440700    1.41208613934456
O           0.04334792141612   -2.10534988243426   -0.87721629000674
H           0.67160010400663   -2.17711589514066   -0.09777354870804
H          -0.84919034019759   -2.05976293863184   -0.50129628153846
H           0.12147125480938   -0.75547040304020   -1.21917093387710
