    19
        -40.92219819
S           1.13606801282403    0.85126901380416    0.46901944264412
O           2.08384397819705    0.17965519527263    1.47172857806513
O           1.50499690212413    2.19982775473066    0.23240253556798
O           1.05955749220253    0.02962492389461   -0.72928616291135
O          -0.21480870820160    0.74882595630345    1.21044490961516
H          -1.03481112416640    0.72389429913390    0.57620018463905
O          -0.35691819813800    1.92778855136255   -2.01775179815964
H           0.31656526847527    1.25069542477682   -1.85007690445704
H          -0.01016186691476    2.72825685554957   -1.61405114558726
O          -2.06197346757475    0.55960497330877   -0.48443660407615
H          -1.65117859121238    1.10263266137740   -1.19526759737039
H          -1.93829273949724   -0.37091452684087   -0.72164375009661
O          -0.64854099687865   -1.92041306685965   -0.56973701545496
H           0.03213187942557   -1.22819941384200   -0.74414732055800
H          -0.45858116073208   -2.64671661820111   -1.16660182850082
O           0.57434087499086   -1.88875420091980    1.88534163829523
H           0.07535243786962   -2.03854778445599    1.05607653660712
H           1.64687421410608   -0.69629540933452    1.68492599804348
H          -0.05446420688747   -1.51223457905810    2.50686031369937
