    19
        -40.91677673
S          -1.18010964841418    0.00993899732173    0.92391262488531
O          -1.27239252179855   -0.45946107204725   -0.47159732803581
O           0.02952447285623   -0.51532956924668    1.53736226795089
O          -1.32455626907679    1.43652241733218    1.02640220244198
O          -2.39944466136558   -0.64091095661668    1.67908295735373
H          -2.18897785833506   -1.56874481448841    1.73057917646945
O           0.49069534094015   -2.64407581503864   -0.06539563768009
H           0.29048678642140   -2.02260449527526    0.65630982082679
H          -0.17762430426910   -2.47541302167390   -0.73526269848947
O           0.63714177418857    0.58991044246464   -1.65509970123893
H          -0.22263835940989    0.11829859099639   -1.26746573811518
H           0.53991078287398    1.56621618565956   -1.34354292442473
O           0.17126713126468    2.83024777494559   -0.57464852123535
H          -0.38040617648139    2.41685940355331    0.13721838935049
H          -0.38704352251530    3.48147497100619   -1.00455180792147
O           2.21210651478967   -0.50117533194440   -0.03640627710328
H           1.41493115961890    0.17157707519928   -1.07588313906242
H           1.65245713224945   -0.34183354576228    0.75032741420569
H           2.09467222646704   -1.45149722638693   -0.21134106020358
