    19
        -40.92315427
S          -1.09926987181302   -1.03688024874940    0.77412723772289
O          -0.87733549264822    0.35695048926592    1.16365412668987
O          -1.70940874969400   -1.09682261537973   -0.55669598350905
O           0.09487159600714   -1.82843525420242    0.90029947722479
O          -2.18034476094779   -1.62563403379989    1.75608306083060
H          -2.99540152951137   -1.29841127050757    1.38840118729382
O           1.80905170974863   -0.86456643303854   -0.83628306836579
H           1.29978102511633   -1.46103506871942   -0.24155193855279
H           2.04249082591281   -0.11130884740662   -0.25233785487276
O          -0.34972002243010    2.14605737774848   -0.72476949463429
H           0.51057133991242    2.43744193473176   -0.40442254981011
H          -0.73561166596679    1.63025099975259    0.01705923616009
O           1.69248105134614    1.02313093301940    1.06216919529778
H           2.18078220863402    0.82789200138690    1.86318129735732
H           0.76287351617792    0.75647469138621    1.23850832719262
O          -0.13400195807073    0.02974273436153   -2.11596523545879
H          -0.21407276416617    0.97957459665675   -1.72872993345304
H           0.77165745088163   -0.36742119653659   -1.70928802339411
H          -0.86939390865139   -0.49700079989138   -1.59343906368453
