    19
        -40.91893427
S          -0.70870895848938    0.55491831324076    1.48347436177625
O          -0.02687561438569    1.78211043588542    1.80832282097695
O          -1.48547258174837    0.58822884015819    0.25985502606156
O           0.19693365967804   -0.60389198087031    1.50313241618486
O          -1.75043669543075    0.29679588547283    2.65303742252588
H          -1.30893896561748    0.65738536045459    3.41598243369369
O          -1.56989886464129   -1.27740382510179   -1.53536207413565
H          -1.63749523355996   -0.50988515745730   -0.91016515717260
H          -2.32033760559877   -1.84432865495565   -1.34827201444739
O           2.25873001623099   -0.06070857937481   -1.42660737146234
H           1.71700706082129    0.75103598630850   -1.23197144807058
H           3.06362640151388    0.02648991218899   -0.91220032389685
O           0.73280484272540    1.94868451335203   -0.71323991209492
H          -0.15600322418627    1.84576385532953   -1.06640917147883
H           0.59882579144121    2.02348701834515    0.25356526717732
O           0.70024832633425   -1.85181509248842   -0.55644734196718
H           0.49237406333648   -1.38312373182608    0.38316827719081
H          -0.17950790074263   -1.73983838502896   -1.07064769344429
H           1.38312547229983   -1.20390471378640   -0.98921551739760
