    19
        -40.92267751
S           0.87656501146578    0.59334102387167   -0.12119195224866
O           0.35031386254561    1.53147207228001    0.85928323366312
O           1.33245744006257   -0.64429114284033    0.46979167176565
O          -0.14827482241986    0.32814657695646   -1.16141782508708
O           2.07829627724719    1.25087013957549   -0.85519771834799
H           1.69690632863627    2.09098726861019   -1.19420473003930
O           0.21597137279968   -2.95078944837412   -0.01949599381301
H           0.59243134508572   -3.31990924306825   -0.82075904920881
H           0.78159346396935   -2.17641005959217    0.22287059445752
O           0.30133984379031    3.12606396005389   -1.31195775200891
H           0.12438136313417    2.94072480884139   -0.37583364512395
H          -0.29385230210720    2.55177911466878   -1.80474337223397
O          -1.16810640146678   -0.22550114362552    2.07374328905784
H          -0.65832100328272    0.55135284450872    1.74070454566911
H          -0.52553611940253   -0.77364298231954    2.53256884339360
O          -1.70232165661831   -1.29244610537652   -0.16848955169813
H          -1.08057056382692   -2.10732112736728   -0.14651369051311
H          -1.66758057881272   -0.91186348553528    0.78914041575809
H          -1.10569284079407   -0.56256308125608   -0.70829731345033
