    19
        -40.91535452
S          -0.45438772384526   -1.80900341683349    0.72974387638528
O          -0.60384720562219   -0.97713210326390    1.99194007549779
O          -1.50858875888727   -1.52164467002841   -0.19703359900975
O           0.88144523339339   -1.72231414719769    0.21912547758781
O          -0.66468721312420   -3.26680423311132    1.27138802036170
H          -1.60470859283964   -3.35343106068402    1.41181707870942
O           2.01795726780086    0.61345280791842   -0.16924771169925
H           1.65517056520848   -0.29877488463551   -0.09435432321769
H           2.96118710151901    0.53824608951713   -0.01315036065342
O           0.56020581571048    1.50724264488621   -2.35616278339582
H           1.17584311918168    1.17801953682377   -1.68000283783635
H           0.78170306627197    2.42720798141794   -2.51081415618830
O          -1.65491824588325    1.13209529993257   -0.80657649043500
H          -1.00470673315760    1.25167699490900   -1.52614078294877
H          -1.80097038102449    0.17412259282819   -0.73813952968415
O          -0.17797398233933    1.34423312200598    1.29431198592101
H          -0.42989665644833    0.07795161413555    1.76590415627416
H           0.70320149393677    1.29285305207575    0.87990085651126
H          -0.83202816165361    1.41200277000784    0.52749103884933
