    19
        -40.91873418
S          -1.14244648032674   -0.41725814249229   -1.20284333138825
O           0.11440627396868   -0.91185709272015   -1.74723675072966
O          -1.35683123890365   -0.89989686078528    0.15043049251583
O          -1.25788405906974    1.03325546406576   -1.28229094764513
O          -2.28573558114644   -0.99964266996361   -2.11696638329952
H          -2.02419259624548   -1.90720915067874   -2.23648923653048
O          -0.63337825879586    0.58678844455344    2.25829472579346
H           0.08093479977986   -0.08117174564701    2.37383025149969
H          -1.27175130782970    0.11192692570111    1.69050615320969
O           2.01192580037588    0.33461205996095   -0.55743108307789
H           2.66807879907669    0.62099014329592   -1.19555784262834
H           1.33147006874120   -0.19021875862988   -1.07101054918077
O           0.99401441118566   -1.36633775488302    1.52070615598836
H           1.68574326004596   -1.03629319152837    0.93767716441049
H           0.21450240940774   -1.50940993376472    0.95808263892476
O           0.28646665572114    1.97591715412023    0.41421404152410
H          -0.42145733339079    1.72601158847097   -0.31694565787448
H          -0.09301146788965    1.48276582775540    1.30369160131882
H           1.09914584529640    1.44702766316834    0.11933855717012
