    19
        -40.92174067
S           0.01810062259392    0.76612102302600   -0.46289099602246
O           1.33307523598134    0.33605822753653   -0.88894315832005
O          -1.01753973978169   -0.28249995852913   -0.82510047048945
O          -0.07629438835544    1.10995507145340    0.92559871032919
O          -0.39848376565763    1.98893391034292   -1.30868379402835
H          -0.06589066233103    1.80906547392212   -2.22592898696011
O           1.58749506834915   -1.31007332008316    1.24479530366852
H           1.54407363380871   -0.67005439429844    1.96008894310934
H           1.71320660769606   -0.79194332991487    0.43275470194145
O           0.94079691989171    1.16326590838191   -3.37351586916494
H           1.32232721204755    0.62768804426908   -2.65349209528947
H           1.64143561418770    1.73464281669268   -3.69804621486379
O          -1.67107008998349   -0.21899180274188    2.63850006754500
H          -2.53469296287901    0.19685139471479    2.65120977802723
H          -1.08187554604835    0.38201580830770    2.14426665430451
O          -0.93115434151765   -2.07003153577668    0.87837809569087
H           0.03892463496816   -2.05660268649884    1.05557628059756
H          -1.33497518033891   -1.59235893844385    1.63944830936685
H          -1.02745887383640   -1.12204172282424   -0.13401524993453
