    19
        -40.91521787
S          -0.65325161584197   -1.43354431442262    0.28083247382801
O           0.73977793099037   -1.74284950382170    0.30887533904537
O          -1.10067156146419   -0.44951921236353    1.23728768483375
O          -1.10234088990925   -1.05085423779112   -1.10592966960520
O          -1.45032665984553   -2.75586909571244    0.57573957667082
H          -2.37466135484667   -2.52375979684065    0.63649677339900
O           1.18442606666715    1.74535823141657   -0.75538090148114
H           0.25291721943927    2.02027300343096   -0.64981253081020
H           1.45565218593435    1.45318396902541    0.13945042816902
O           1.41759992481548    0.57411644396479    1.68060154232416
H           0.48393226522454    0.32940536970174    1.76112388283872
H           1.87483886440270   -0.25900739964957    1.53389112883498
O          -1.38135230599859    2.01105931324141    0.08929271837123
H          -1.51190709426944    2.63746068873469    0.80424754338518
H          -1.41423851890010    1.12566614442769    0.48880765721772
O           1.03287546484321   -0.41642682782283   -2.09867554231342
H           1.57414949109661   -1.02137301148362   -1.57503693225483
H          -0.18280950718578   -0.75287800461672   -1.67733961467496
H           1.15539008426208    0.50955826968657   -1.67447157709283
