    19
        -40.90294277
S          -1.36901344885431    0.33680265973991   -2.04997247965733
O          -1.54412284721228    1.15643894209881   -0.75875248001518
O          -0.26999155558000    0.85242079436251   -2.81271498021426
O          -1.36093679440336   -1.06103341709318   -1.77678364666881
O          -2.69881490253992    0.69296444816452   -2.80706620487160
H          -2.59979754506493    1.57831312812067   -3.15344782408586
O           1.77784441478319    0.59504994613804    3.11876132506098
H           1.55995572980526    0.82067432748752    2.20173719109446
H           1.54471302337267    1.35668312563251    3.65174553912802
O           0.04102071456935   -1.45189538927617    2.53997749749876
H           0.67544456235906   -0.90568494121441    3.03874211457367
H           0.47216219990626   -2.29111865396797    2.36904761205899
O           1.34358395781394   -0.90421925202071   -1.47965630473276
H           1.23430080780792   -0.21920847314034   -2.15414720491158
H           0.56228840297794   -1.46448705885413   -1.58654827126647
O           0.41076581599554    0.39090898483993    0.62741454322112
H           0.91410771163603   -0.08212005870713   -0.08151581602340
H          -0.77202477319267    0.91328481518019   -0.11904066273337
H           0.07851453585629   -0.31377391754885    1.23222004245006
