    19
        -40.92135385
S           1.36418130015051   -0.68800804960594    0.32065779174376
O           1.87613968031420    0.20947876130533   -0.69150242539786
O           1.16557633529810   -0.01207480058158    1.60340924740415
O           0.16749101884812   -1.40110088831809   -0.09736303525818
O           2.46353273924499   -1.79281792636451    0.56750695797953
H           3.24406691021451   -1.27861333357059    0.74924701560961
O          -2.07657919091816   -0.70385870980996    1.11748970196903
H          -2.18636905961809   -1.21825291283151    1.91934739633701
H          -1.31944677286496   -1.10175302133244    0.63054831253662
O          -0.94697582982544   -0.28997010870371   -2.27982393897028
H          -0.57973127115439   -0.82348009811081   -1.54827339204944
H          -0.42359369419900   -0.50149564883354   -3.05470063744655
O          -0.10417284296854    1.88774113970938   -1.04219161147258
H          -0.62500991899835    1.26408609585431   -1.60261870644364
H           0.77670907621763    1.44789849169610   -0.98078550926992
O          -0.79385215074782    1.49487241716173    1.30158502740604
H          -1.48863187127724    0.75230115557538    1.25821903060193
H           0.06480531781512    0.97063607898709    1.55982806276634
H          -0.57813976630502    1.78441135896871    0.26942070330222
