    19
        -40.92219808
S           0.54461978601500   -0.74888783027247    1.17301096164254
O           0.05130698704912   -1.82447748628290    1.95435452427813
O          -0.30430669675302    0.43268724643894    1.17270665605297
O           1.95931728195505   -0.34371897423650    1.60747538487323
O           0.78506544517481   -1.16950498679479   -0.29359299886704
H          -0.04991326542731   -1.05805192344585   -0.89800136680634
O          -2.50183501973021   -1.06420821694579    0.72659301562518
H          -1.92116078668453   -0.39160509467955    1.11468814837284
H          -2.26627631215508   -1.88260628734127    1.17233000586509
O          -1.29398955226137   -0.69662770620363   -1.62598480723730
H          -1.18518357195935    0.26103436117875   -1.71704377878963
H          -1.95331869733870   -0.85197552659295   -0.91167647864172
O          -0.14869808327461    1.84533950027250   -1.00165747005706
H          -0.39970401561667    2.76321450871249   -0.88220159181763
H          -0.28449475438127    1.40128709219500   -0.13159783450450
O           2.44441716231209    1.12003239911358   -0.47803154562135
H           2.67631287088050    0.43395526056297   -1.10962598220156
H           1.58136278061206    1.47634676968232   -0.77348735891176
H           2.26647845160270    0.29776688464316    0.90174249675120
