    19
        -40.92022146
S          -0.50376984274645    0.69164511743305    0.35243044571709
O           0.49861647913713    0.14168503695130    1.22838251737614
O          -0.19554030235254    2.17160228829952    0.10155715842960
O          -0.62177156443645   -0.01684257578303   -0.90086405937607
O          -1.87239721275372    0.74073116902533    1.03099715541037
H          -2.37473387020858   -0.11860409831160    0.78030258257800
O          -2.72562594214231   -1.49402297052254    0.20995897948008
H          -2.43470773614452   -1.35419169839985   -0.69835809285477
H          -2.01192412734868   -2.02157793140836    0.63498698189624
O          -0.39346482274574   -2.39763334991248    1.15275980012323
H           0.01656848076839   -1.53396990110835    1.33991697164521
H           0.20294293766349   -2.85231664209817    0.55405947236186
O           1.84612405089556    0.31546363192997   -1.90071553859517
H           0.94233303847603    0.08006074670718   -1.61566093714038
H           1.76807654601076    0.65909675937759   -2.79324670968396
O           2.32449652882055    1.96397524592953    0.15031537936376
H           2.32924765200992    1.35313500048708    0.89658903842158
H           2.38054583854357    1.39739891687842   -0.65207367636008
H           0.82498388940519    2.27436526349779    0.12866254071785
