    19
        -40.91247206
S          -0.19241015029275   -0.15209772127740   -1.71000193193405
O           1.05916134786788   -0.01394571913698   -1.04515866697272
O          -0.59364664942177   -1.44826035887685   -2.15653123446486
O          -1.31971826940017    0.46526370418516   -0.88650859230303
O          -0.14100794718441    0.78600477272527   -2.98889439029776
H          -0.74331000126317    0.41222860459093   -3.62855155955614
O           1.62028838054506    1.02543306588972    1.40394552246818
H           1.30259823802474    0.28249865600118    1.96036289449501
H           1.76237370590607    0.62834707066212    0.53070111890080
O          -1.03922564496291   -2.02502276232411    0.46075624474402
H          -0.83517724013463   -2.05549236874395   -0.48519204896158
H          -1.84173156304859   -1.50387876377856    0.54227692905353
O           0.66628142988154   -1.25740285081034    2.45982979082199
H           0.04520948712840   -1.55515045220739    1.76867595709521
H           1.30004186995114   -1.96766867652068    2.57221833708260
O          -0.41581196063671    2.29793423537687    0.52398407667892
H           0.37125976936927    1.85086359320978    0.99395832482645
H          -0.03592929315633    2.97100009416752   -0.04566726997479
H          -0.96924550914822    1.25934587684980   -0.27020352167441
