    19
        -40.92136493
S           0.50488400765783   -0.59746963479543    0.72189721479466
O          -0.79753618027293   -0.91237853203104    0.18663614071702
O           1.00379694671358    0.68738089935206   -0.00013401445382
O           0.55046321260157   -0.42771455980552    2.13886952788917
O           1.53954335081100   -1.63117505452215    0.29041593309391
H           1.70520197199061   -1.50952690015810   -0.71363321284261
O          -1.02418312339142    1.60156634747597    2.89449021062264
H          -0.50481418660652    0.78229860889626    2.77571577703921
H          -0.51744638138878    2.15784536595361    3.48949094324449
O          -0.85020271770219   -1.17288882702720   -2.44064765410153
H          -0.95689474127730   -1.07246596862678   -1.46997679709996
H          -1.28968800393994   -1.99162701632341   -2.67780831615174
O           1.77332861619748   -1.09068251940941   -2.17454689773135
H           1.99472260019729   -0.15583483895423   -2.13520296646354
H           0.82551569141055   -1.13857054943241   -2.45543603491737
O          -1.17741004074428    1.94105730166291    0.27040745122067
H          -1.75828670776615    1.21716077482496    0.01412582777428
H          -1.23105727305520    1.98710701198757    1.25473675409953
H           0.21006297857729    1.32591809093706    0.03060010326315
