    19
        -40.92071432
S          -0.40234782336085    1.00738684263504   -1.01009578907645
O           0.73139827247506    0.13863670585295   -1.22660713644967
O          -1.55079637525146    0.69333827187284   -1.82866359116904
O          -0.75172875218558    1.05443355854292    0.42368197640686
O           0.04114720194559    2.47554535197923   -1.38972488696019
H          -0.77230153644891    2.90136855944088   -1.64502520349121
O           1.37075446443639    1.16327308807053    2.06090729960496
H           1.08923758362311    1.46802335971904    2.92483458787915
H           0.61103640892765    1.28958957945708    1.45834389889561
O          -1.27718979272467   -1.87946262770754   -1.42926275544962
H          -0.44451351554669   -2.03467695809377   -1.88480437327167
H          -1.54202787469987   -0.96449701529358   -1.68566823194276
O           1.71490434656334   -1.17377682056794    0.82735112182279
H           1.87474522034771   -0.42360627365251    1.43805884339794
H           1.61392726370260   -0.73943675410679   -0.05077893919318
O          -0.74430461820141   -1.39337566717439    1.00667497987206
H           0.35235946877323   -1.44518568000566    1.02224387981973
H          -0.88795087704743   -0.38193621698290    0.90397597171646
H          -1.02634905538720   -1.75564130395008    0.08455835760690
