    19
        -40.91790598
S          -0.11648778871604   -0.99933290621008    0.20344667460256
O          -0.17118853462386    0.17045223251530    1.04232559061017
O          -0.95581968769127   -0.80149829129989   -1.04518740672054
O           1.20811617170032   -1.42384201079766   -0.14806547002019
O          -0.86389263385653   -2.16582635359484    0.92188381860490
H          -0.32837952528004   -2.34296243064200    1.72339716234117
O           0.11452483527365    2.46637750055116   -0.41828210994069
H           0.18088368958356    1.89270679427158    0.35997323282529
H           0.71943937818733    2.06220746875016   -1.06749097085328
O           1.48979981009754    0.64235605798805   -1.91042475741978
H           1.03989495620072    0.31333685206649   -2.69157724055157
H           1.60031601508758   -0.12022594697880   -1.32161026779710
O           1.10869903571856   -1.78788340007873    2.61346602197664
H           0.90518988101924   -0.84802307847049    2.67455911628412
H           1.75691724898815   -1.87464835836117    1.90497883739437
O          -2.17258462008181    1.37189502838006   -0.92013133447992
H          -2.62629234435852    1.40893845363913   -0.07418550288718
H          -1.35404318306551    1.95172583458089   -0.82158618433928
H          -1.53509271422639    0.08424655362565   -1.02548920962350
