    19
        -40.91904993
S           0.58915590774018   -0.89273877620920    0.46810874299935
O          -0.89392230070755   -0.90742642383846    0.05061484151365
O           1.37571729409310   -0.75426682213015   -0.73184474128046
O           0.80231483212664    0.08292273189870    1.48622712403303
O           0.81309918668314   -2.30786753239251    1.05625974489252
H           0.70085746544726   -2.92233387276417    0.28891772937572
O          -1.13419865027992    2.70619817455922   -0.35717710598302
H          -0.17363556228762    2.52528022013161   -0.46744599647428
H          -1.51635497449233    2.68965907601766   -1.23580730842089
O           1.44041297758411    1.96398174026627   -0.55958623511680
H           1.74725322998393    1.98474098653897    0.35120629372363
H           1.51281269584461    1.03360870901115   -0.82624902811520
O           0.39251776854323   -3.18519126300617   -1.36030716200005
H           0.88829034011704   -2.37609093933756   -1.56477479930151
H          -0.53061483916072   -2.99290802908165   -1.54670788567057
O          -1.83081477261762    0.92217598878042    1.45531890372087
H          -1.70960186658331    1.68007219520410    0.82716969076912
H          -1.41145969513468   -0.19821153166534    0.62684839365084
H          -1.06182902626450    0.94839537757362    2.03922882748716
