    19
        -40.92246918
S           0.63907572420050    0.85235361914089    0.10661533861889
O           1.67399008356323    0.19147123296816   -0.65395447387911
O          -0.46115892274013    1.34701767237640   -0.66444252541342
O           0.14842520706762   -0.09061166814992    1.20196960644333
O           1.25761513992874    2.01460107195097    0.91372018979490
H           2.03796305061244    1.60372680456587    1.36348999650419
O          -2.97681515859282    0.42066456562657   -0.46186043786971
H          -2.13669082462342    0.88656386150346   -0.63522816872435
H          -3.47657834784617    0.97490008214254    0.13985673057934
O          -0.09493841777334   -1.30620381807466   -2.03810534739448
H           0.69299373053209   -0.86070858098313   -1.68228039204076
H          -0.56282140449014   -0.64320645373590   -2.55196567959687
O           3.04549001945350    0.27965349623905    1.65893716515268
H           2.57207880202471   -0.35704284051713    2.20178572454820
H           2.92395376677833    0.00010112517993    0.73694110045064
O          -1.46824881038479   -1.65606698878359    0.19880362950297
H          -1.01766243514927   -1.78037833829333   -0.67175193777864
H          -0.57588785524499   -0.82976103846278    0.82914172681239
H          -2.22078335763816   -1.04707380331901    0.00832775293761
