    19
        -40.91671915
S           0.31670345991259    0.79673120114722    0.96805064073122
O           1.50107699524924    0.55932993589617    1.94990539491716
O          -0.67249665921716   -0.20451407971347    1.24260683734515
O          -0.08856485018768    2.16377902000331    1.01673149089695
O           0.93840246026795    0.52630128679074   -0.41691463582169
H           0.94196547991900   -0.50429703396967   -0.53839904542346
O          -2.75032540703052   -0.49170381066819   -0.44768106151770
H          -3.52065165596877   -0.76237978119054    0.05560898596094
H          -2.04638341127722   -0.31456212049057    0.20399363964661
O           0.70607474221739   -1.96672545862676   -0.46521555831066
H          -0.00725835249395   -2.13840596285839   -1.13596730850414
H           0.26685550129920   -2.00369845123589    0.39238872920435
O          -1.36684000397607   -2.10027079489716   -2.09182087893261
H          -1.97298602281699   -1.55091226874918   -1.54814803037116
H          -1.25495455828904   -1.63380874336659   -2.92179243708513
O           2.52512455851263    2.74716466337629    0.95988737448248
H           1.57958738426703    2.97200822997441    0.94003323778226
H           2.11844634962205    1.31296527836003    1.78847303048875
H           2.78622395998630    2.59299891022455    0.04825957451147
