    19
        -40.91371033
S           0.31026832209925   -0.91636025733240   -1.42021781891736
O           0.73396218516035   -1.98601229112595   -0.57168813889463
O          -1.04830235586747   -0.47976857491588   -1.27808365202891
O           1.26625140678074    0.25978810917041   -1.33887124377626
O           0.48342102073511   -1.37631662202376   -2.91320209310235
H           1.28715571027550   -1.89045290900544   -2.94337825008941
O          -1.21102942160581   -1.52102504308679    1.27942847691223
H          -0.42142970057577   -1.98805049643811    0.97451771251170
H          -1.63154186315100   -1.21990286609813    0.46498846043946
O          -0.28294472773311    0.86538774524941    2.11222416535737
H          -0.65705875841816   -0.03806585483140    2.03156500739189
H          -0.75974849399009    1.39995694136394    1.44819446295253
O          -1.43400637308404    1.92430850117315   -0.10787157471012
H          -2.35649476969064    2.16741606939514   -0.20425876754192
H          -1.30471954798562    1.11714729543856   -0.63813886003457
O           1.98740940707798    0.77024188509178    0.96435640400166
H           1.11903605868568    0.78217232852601    1.50891309675776
H           1.60527038634660    0.45574051961558   -0.33543950741040
H           2.31450151319898    1.67379551115454    0.96696210911818
