    19
        -40.92136503
S          -0.15686599562282   -0.47948720485611    0.93617106983832
O          -0.30635256761818   -1.06580965011143   -0.49729027932138
O           0.31765767604485    0.87606876159091    0.79805166980526
O          -1.37534630322069   -0.62126932129322    1.66681746914291
O           0.91710804834465   -1.37744610567069    1.54058541593113
H           1.65560329847817   -1.49921948710921    0.84039626048453
O          -3.36561338287881    0.68983274037057    0.44664601302842
H          -2.72230996622925    0.26528695069981    1.04742951680792
H          -4.11628825648053    0.09504861298157    0.39175719910720
O           2.56637695766165   -1.52909928337849   -0.37762705888248
H           1.99554223104623   -1.84635646364802   -1.08335846377443
H           2.71703463953265   -0.56721031277144   -0.55542695010924
O           2.54803387684198    1.09987255460931   -0.59799566178478
H           1.70823584745960    1.14199278976113   -0.09140954653048
H           3.18223169191910    1.63336706415061   -0.11539666672006
O          -1.50945742336434    0.95712397949426   -1.42632282877115
H          -2.32196733161562    0.94958578172079   -0.86622161174115
H          -0.93313985885165    1.62229416555411   -1.03574151488608
H          -0.80048320145234   -0.34457559210712   -1.02106402162293
