    19
        -40.92158929
S          -0.04073389831334   -0.84111744216060    1.21292421808513
O           1.01772284120925   -1.05023083101150    0.21604232803735
O           0.46736716958714   -0.30611889493130    2.44664822067515
O          -1.15293829820578   -0.10464839947732    0.63168539742444
O          -0.62676510033292   -2.27752605338567    1.53581670070301
H          -0.03178052011510   -2.63157180181157    2.18975426728331
O          -0.09861170579016    2.01487404081554   -0.59882635214060
H           0.68565596766852    2.11416071291447   -0.00847731161760
H          -0.72077664145560    1.48625334849887   -0.06116529407590
O          -1.90888983530243   -0.89645263383705   -1.74677430450170
H          -1.78156392540235   -0.73563940071140   -0.78208829009057
H          -2.68484103855444   -0.39687617135574   -2.00890034451714
O           1.84234072742018    1.55777062421545    1.13331577332137
H           1.37436351807668    0.98200765418163    1.76932650815170
H           2.54589546580137    1.01507950653975    0.76970104274548
O           0.47418136201452    0.00775883537909   -1.95683582062657
H           0.80632097037220   -0.51817796718316   -1.10499958849584
H          -0.44764756081699   -0.38874651913500   -2.11218284711402
H           0.28070052214272    0.96920139250660   -1.52496431319580
