    19
        -40.92221076
S          -0.39745361734564    0.94946604387662   -0.22767596831502
O           1.09848289806692    0.56723946403186   -0.32105029196286
O          -0.53148005736505    1.90983345329281    0.82124672728001
O          -0.90497629071738    1.30602316398602   -1.51525652991580
O          -1.07608545193660   -0.38486280803804    0.17844023956086
H          -0.56059303373665   -0.73816309326609    0.98206716536935
O          -1.36723435956156   -1.07076997479305   -2.60804010123766
H          -1.81654645864727   -1.52330440981333   -1.88971811349141
H          -1.37553969412199   -0.12401855579430   -2.36390368644997
O           0.44139221023539   -1.08109923247392    2.09043355771538
H           1.30567414060887   -1.13884120196865    1.67395053550313
H           0.46948636368229   -0.26743697034723    2.65498818913369
O           0.44214607577675    1.30085569838244    3.21293301014041
H          -0.21281548886274    1.57018339435031    3.85987484742783
H           0.15588639627425    1.68499167612261    2.35818337987585
O           1.23551606449405   -1.05329584603225   -2.27786106254239
H           0.27237713347754   -1.20507776908454   -2.47581442763878
H           1.60199338927963   -0.62409072154358   -3.05442214017981
H           1.21976981039636   -0.07763231087805   -1.09837533027448
