    19
        -40.90722480
S          -1.56227927482801    0.17560791013118   -1.71595007762345
O          -2.71712644237124    0.40368177088909   -2.50505101156277
O          -0.32520201387622    0.02386875840475   -2.59846381067379
O          -1.27656207604744    1.04226071150599   -0.61701170859789
O          -1.71597283792944   -1.29678561391102   -1.08662953236206
H          -2.29949790846058   -1.75592628155232   -1.68608063102266
O           0.27543158859262   -1.47163022712601    1.03178863518827
H          -0.11951323664830   -0.70918249941502    1.52607423921491
H          -0.46012475089078   -1.85741461575934    0.54841742187042
O          -0.69149670736855    0.79973545184058    2.00763731925142
H           0.12275297818559    1.31535671228063    2.05055468111194
H          -1.08250195734888    1.01245869839522    1.14329596885103
O           2.12025850178310    1.06771838668884    1.60416947868451
H           2.94263296384894    1.37312234857033    1.99033573316261
H           2.04497040410461    0.12713260435388    1.79863612693389
O           1.50430882519264   -0.15520239064858   -0.89391101359380
H           1.11012855967270   -0.74890936395592   -0.19965251956344
H           0.48411106153086   -0.03254737140415   -1.95600734042612
H           1.64568230284790    0.68665501064922   -0.44215196891162
