    19
        -40.90985706
S           0.47358435371880   -0.84981981753600    0.38181923509972
O           0.71242997548382    0.04297695183560    1.49085372618043
O          -0.95945485320153   -0.59589219322320   -0.13970758778433
O           1.41043900476234   -0.76097760812478   -0.69066657534933
O           0.41065763889126   -2.30069580647468    0.88574905398919
H           0.01372321486298   -2.27408005726865    1.79930032575911
O           0.97116977197973    1.57580304020477   -1.91466594607183
H           1.61622503731814    1.83453338336557   -2.57582054429066
H           1.26181782646743    0.71385076564866   -1.55779889737727
O          -1.32429802431581    0.20620884545162   -3.01946480742722
H          -0.59322494112102    0.78745671046776   -2.77679886915079
H          -1.46318627502588   -0.37668401934061   -2.26959966106447
O          -0.35139268439965   -1.62243394222000    3.25963844978848
H           0.21839326823276   -1.87595504922615    3.99031788719370
H          -0.02017741022174   -0.77199327723804    2.91754250942851
O          -0.80614043192397    1.92015379042642    0.11864791775882
H          -0.27269258090445    2.12159951077996   -0.66968504542823
H          -1.11096188373401    0.41134070903587   -0.08159368860140
H          -0.18691102671209    1.81460808365917    0.85193252754811
