    19
        -40.92136496
S          -0.14512525504242   -0.67237607944287   -0.81219956537544
O           1.10862127697703    0.18159470136510   -0.46598470625904
O          -1.11628852654993   -0.45170800407805    0.23187120230789
O          -0.60217439973091   -0.38163318743218   -2.13327440389441
O           0.40733186727869   -2.09249511123583   -0.75590888464560
H           0.99651009165638   -2.16741101141361    0.07931796301249
O          -1.28287497479562    2.19881936401551   -2.34826158948013
H          -0.86951528354847    2.54427963948503   -3.14199033816143
H          -1.17636183371564    1.22802802795017   -2.38361197182174
O          -0.21867268837068   -0.95439409225576    2.66392595260206
H          -0.83585744721106   -1.52335595117339    3.12767522486594
H          -0.64996195919197   -0.71039851954677    1.81652215180969
O           1.82066401658329   -1.98505471298207    1.34498839036058
H           1.14998775088548   -1.64969280433533    1.99092195127100
H           2.39283941469382   -1.23977172624331    1.14079495319644
O          -0.20564642905518    2.27586747049166    0.07193647057040
H          -0.88740655075587    1.85048833175335    0.60235300047290
H           0.73724134902536    1.09928734927779   -0.22398000401829
H          -0.62331041911823    2.44992631580466   -0.80509580681105
