    19
        -40.90294285
S          -1.17671113100153   -1.86375831289874   -1.15550499698724
O          -0.00248895404476   -2.29586396808585   -1.85532800811672
O          -1.22892237255128   -2.13749115965291    0.24140482177934
O          -1.44267751559195   -0.37494059865838   -1.44244888304456
O          -2.42590540838730   -2.52343081775850   -1.84326786497773
H          -2.27501469627403   -2.50182465101906   -2.78687483481038
O           1.52090729425152    3.22708456849437    0.71984483262231
H           1.38717508201329    2.45211005253878    0.15346356572658
H           1.26923341380020    3.99287004566099    0.20142876936183
O           1.44175715443417   -1.60973008016865    0.36082041943828
H           0.65789895352622   -1.97517713031286    0.79423230258218
H           1.41108395827562   -1.98301345360671   -0.53124536149040
O          -0.22096156933905    1.80141702158750    2.29315866126773
H           0.19864344507027    1.35430146761798    3.03035760742866
H           0.38470464114556    2.51147803772439    2.01282341558883
O           0.36298900923200    0.75771814302214   -0.10649302054518
H          -0.03935973997364    1.02778922735223    0.75263513203368
H           0.91354982504407   -0.03950463717296    0.09617430251333
H          -0.73590137960708    0.17996625528138   -0.93518084024660
