    19
        -40.91469029
S          -0.77275843849638    0.61881315931623   -0.95811252766682
O           0.60955371031710    0.96234667049185   -0.34037796818868
O          -1.07597617307876   -0.75555687945835   -0.63486560558986
O          -1.72465260420452    1.59193378928558   -0.55165127248034
O          -0.50212669975305    0.71809251497052   -2.47446828891347
H          -0.00401055411433   -0.10599200589633   -2.71869984966066
O           0.50870680223209   -1.67000100986024   -2.54925320605198
H           0.11869626007480   -2.32617333382768   -3.13218847741981
H           0.00774875395439   -1.69882527798610   -1.71330728717354
O          -0.77168513123739   -0.58919443975059    2.10645118011698
H          -1.13291269134266   -0.80317186702748    1.23372282966937
H           0.13728410328048   -0.93844147138191    2.08731782033799
O           1.85321302698061   -0.94303247208346    1.35967143077559
H           1.63578596826387   -0.40590729671150    0.58610979129194
H           2.54137060298792   -0.47454688385173    1.83621320320520
O          -0.25158197421357    1.95555078908719    1.78046860288253
H          -0.51231912486380    1.05996216797753    2.13251280020620
H           0.38980963017273    1.47004620891635    0.54846368132060
H          -1.05414545647231    2.33409764700188    1.40199314218787
