    19
        -40.91912282
S           0.26382635116503    1.30387553404529    0.11971679571562
O          -0.70665039236358    1.26196875067289   -0.93195380980973
O           1.29020369282305    0.15006639231477   -0.18589657321862
O           0.99027368872125    2.51937181794384    0.30405769839960
O          -0.36348431817993    0.89427452662157    1.44673475049540
H          -0.94885102378820    0.03571512319665    1.35421509548589
O          -1.70674059961872   -1.19773271168546    1.09244481032291
H          -1.05265762403658   -1.81074503941299    0.67906993916869
H          -2.32570926865375   -1.00895435342335    0.37037946253046
O          -2.24689808229874   -0.79084262418729   -1.59633568628679
H          -1.69949567902111    0.00624275800390   -1.44063467025989
H          -2.86239019617242   -0.56222757789287   -2.29408522066047
O          -0.05273267360640   -2.31475740023706   -0.65397407488575
H           0.60615092572493   -1.60994452107121   -0.66513152155107
H          -0.72370412826574   -2.07035144968629   -1.30686641391921
O           3.09037813447549    1.27358012621358    1.28198594992566
H           2.07810967666022    0.36058425937849    0.38189547650268
H           3.91615943331179    1.55463142241615    0.87978624890751
H           2.45421209312201    2.00524496678862    1.16459173316914
