    19
        -40.90767150
S           0.06878265308870   -0.83284487044106    1.09156624606306
O           0.08195461444278   -0.51249602991164   -0.45176991489952
O           1.32085952320546   -0.39502295528897    1.61915723074160
O          -1.11099312189204   -0.28435065662083    1.67172716356440
O          -0.04342665650025   -2.37339291822485    1.08377155928939
H           0.70228252685802   -2.70220461267534    0.52808414410851
O          -1.98978007714058    1.23615598495359   -1.47213143190293
H          -1.54868274064889    0.42624191814122   -1.18890584476799
H          -1.46043080787332    1.60862066834367   -2.18058345540861
O           1.69328189090359   -2.75116818857985   -0.83415107688884
H           1.43944816057562   -3.38891295744234   -1.50654494266086
H           1.38961873163628   -1.88163892183236   -1.12677129706484
O          -1.16961376106902    2.34353783576198    0.91522758559201
H          -1.28475779491169    1.53539788976285    1.44171485291408
H          -1.73869070529432    2.21237372453283    0.13712309607751
O           1.11723294837442    1.72007373729443   -0.13898912242112
H           0.31088347093365    2.15760597022881    0.27276323562977
H           1.67460872403251    1.44435428859871    0.60050550207874
H           0.54742245109365    0.43767010345320   -0.46179352009458
