    19
        -40.91955066
S          -0.29506196894442    0.64848253969798   -0.92428095922223
O          -0.61580896322379   -0.83617755249290   -1.17889436822836
O          -0.90230304728208    1.03909010490358    0.32714696854602
O           1.10471898218851    0.89311243960600   -1.03127131783176
O          -1.04237552117388    1.33571869247400   -2.08467051539288
H          -1.99574742564281    1.14840632578518   -1.89238551348995
O           2.51754087425219   -0.41254941897988    0.90600362792987
H           2.31784101711930    0.18172826958224    0.16533338840385
H           2.02053046590485   -0.04163159065551    1.66229533228990
O           0.72807069300953    0.85060499817560    2.49246977821206
H           0.06320725095939    0.91900115865943    1.78429956093266
H           0.88907974667388    1.74501557445500    2.79844929648655
O          -3.21329582141789    0.49901615324996   -0.93110301363932
H          -2.68621334138257    0.71412849975240   -0.14437122490625
H          -3.20597367365469   -0.45884696877185   -1.01142357574709
O           1.03994105706622   -2.31249674740490   -0.01529611135478
H           0.04512955325570   -1.47885242377681   -0.68952089823058
H           1.56908202179978   -2.77881660429690   -0.66688180305269
H           1.66163809055274   -1.65493344998939    0.43410133834372
