    19
        -40.91333142
S          -0.69120200273946    0.96273217817519    0.33002571708949
O          -0.07682409505472    1.01576183107434    1.63148171440215
O          -1.89043529085847    0.20651626529804    0.21868955069771
O          -0.90980991119572    2.38380038595000   -0.22253040040489
O           0.38077539474802    0.39719140978344   -0.65184643773633
H           0.79651945187033   -0.39813270043961   -0.11581296213454
O          -0.32392367672249   -1.80511221419004   -2.36043587859631
H          -0.19362950800683   -0.90070470311180   -2.04902209812961
H           0.54028851022793   -2.14219408203747   -2.60493398762443
O           1.05372448462275   -1.47885766378859    0.84823291744701
H           0.23377551568437   -2.03343620686542    0.67150235168059
H           0.89838573589910   -1.02825330884979    1.68538386478449
O          -1.23936724446180   -2.46439808438480    0.14915146972821
H          -1.10113308920166   -2.51456590985299   -0.81333847537126
H          -1.75529276575195   -1.65312181589319    0.27976933686309
O           1.29015955323345    3.17700047923983    0.91326323370637
H           2.11031026376998    2.89077439123435    0.50390777399915
H          -0.12830763997608    2.91914846679979    0.07100269986646
H           1.00598631383499    2.46585127209496    1.51550959989938
