    19
        -40.91673472
S          -0.36706894995009   -0.88942270786961    1.06246936584082
O          -0.18037659160608   -1.90036673997524    2.05069365803734
O          -1.66340376045640   -0.70243957440469    0.50246064204568
O           0.17438249157155    0.43370185995661    1.63769539449619
O           0.62065674388644   -1.15843899040552   -0.13693112859201
H           1.47510119081814   -1.36272365686816    0.32348204853995
O          -0.02358392122756   -0.26793421106365   -2.75334952818640
H           0.18001636327819   -0.74370232006513   -1.93686918870165
H           0.75778759446106    0.24048849191877   -2.97944021283641
O          -2.01359452123011    1.10115278153774   -1.48895862974121
H          -2.19905779063753    0.40612546995585   -0.83536745511513
H          -1.47319590007924    0.66124094106792   -2.17164255432006
O           2.42484521472763   -1.56758077010115    1.67116816570068
H           1.64396431265391   -1.93463900629369    2.12344413536469
H           2.63587158720608   -0.74607901701744    2.12287055696035
O          -0.28957520500417    2.29515173429485    0.00619620950438
H          -0.96804864139954    1.90532999089161   -0.63614278002163
H          -0.73513652014558    3.01606602503524    0.45661738545537
H           0.00041630329975    1.21406968946262    0.98160390565660
