    19
        -40.90657643
S           0.72589891522164   -2.06620600135872    0.64668850776717
O          -0.37153226687121   -2.72758670015736    0.02731869614391
O           1.80356704839426   -2.79857865943376    1.20227420648915
O           1.26112260689403   -0.98288841337265   -0.31703054394456
O           0.10405687719270   -1.17075963724232    1.82020666055362
H           0.82044429177323   -0.96634302848971    2.41786919364053
O           1.08389297810193    1.62723455820668   -1.61687949050312
H           1.72931190877604    0.95993654110132   -1.36544082098281
H           0.35774704848152    1.15296003783380   -2.03736543813019
O           0.01364302503049    2.44439225404050    0.73525688877158
H          -0.22979100743409    3.36983951646447    0.68172358177968
H           0.47211357455451    2.23073670763249   -0.10531978916348
O          -1.86929119857687    0.53388035808898    0.62268503611617
H          -1.58354207541071   -0.12856418053223    1.26033295650884
H          -1.26564275470938    1.29848593540758    0.75257276141122
O          -0.89155883252936   -0.52264665360252   -1.53731249112652
H          -1.19317030273760   -1.43898526926614   -1.51553746295859
H          -1.39352604727654   -0.06648223545284   -0.79637491021131
H           0.42625621119635   -0.74842511985236   -0.87566754213239
