    19
        -40.92218957
S          -0.19650773213583    0.20679116686701    1.12191031435452
O           0.28349889046922   -1.15045619601002    0.88234929303858
O           0.69847593103978    1.19139963199217    0.52244428639577
O          -1.57041138880269    0.37754763112805    0.64960556174910
O          -0.22718935140843    0.44836090465548    2.65934065137743
H           0.71184120157008    0.32074565928460    2.90835741364410
O           0.22710024254141    1.66083803894361   -1.98370169531777
H           0.01635339417895    2.59472502221257   -2.05035028769912
H           0.51750059857811    1.51075867199465   -1.04385047208685
O           2.33373033378148   -0.05590939559580    2.32538304604763
H           2.29572280974292    0.63217100168809    1.64776975026959
H           2.03380542318392   -0.85867922159288    1.87868135654491
O          -0.44632936356412   -2.14077493767882   -1.39977667303207
H          -0.07474393547060   -1.83047426645426   -0.53026171102717
H          -0.96133390805907   -2.92636840113450   -1.20332602566615
O          -1.68436773612564    0.02348951206525   -1.79100395030341
H          -0.94491927861547    0.70133072510964   -2.04636248853079
H          -1.22940549320645   -0.90653655225636   -1.79933667505280
H          -1.78282063724934    0.20104100461480   -0.74787170465204
