    19
        -40.91234303
S           0.06315374975146    0.04393996240726   -0.50087884679342
O           0.09373388621772    1.42573295304004   -0.14682046393477
O           0.48055995762755   -0.89102535607319    0.51214148957583
O          -1.36520008528884   -0.34197814122696   -0.95183915832360
O           0.88367942825990   -0.19123936547847   -1.78607076406008
H           0.96543977853841   -1.18033127370158   -1.88527410500994
O           2.87878105810503    1.32377029492335   -0.14350276646477
H           3.01336183681464    1.10091358538319   -1.06640132312318
H           1.95559902587712    1.58554655665387   -0.06125568303091
O          -0.78944747286458    0.43175280329439    2.50983947388238
H          -0.26995596606486   -0.19409029715668    1.97879593269365
H          -0.20707973400463    1.17793240292965    2.67308774610806
O           0.77010955373811   -2.74486312023371   -1.41071708333171
H           0.79898809475623   -2.45727712690816   -0.48284661291154
H          -0.11428348203039   -3.08471384924469   -1.57054713250809
O          -2.65179973050193    1.06388291538215    0.71216706919512
H          -2.12034711874567    0.82208619448904    1.50919133741512
H          -2.35966628965908    1.94590232652022    0.46331068505416
H          -2.02562648107648    0.16405851535826   -0.35237980470492
