    19
        -40.91232550
S           1.08778955782290   -0.11833862626278   -0.75232408792702
O           1.36466798767263    1.27454278853051   -0.53106116707137
O           1.89766769968304   -0.80462025397721   -1.69675057024361
O           1.03972234549009   -0.85224883746012    0.58773029377243
O          -0.43360202717121   -0.22115846738410   -1.19650401377269
H          -0.43229292811681    0.20820927251407   -2.07862084479855
O          -2.04423485891778    0.36350295906059    1.09901794493687
H          -2.02806751220965   -0.54932194920802    1.44360000121051
H          -1.83566796657002    0.27335415398262    0.16146250975969
O           0.56981056508986    1.10196146320233   -3.21741439303559
H           1.25314239545821    0.44022319266885   -3.37549693130734
H           0.96200845144651    1.74544469211211   -2.61579384623007
O          -1.19207510942811   -2.13633996568751    1.78671485226221
H          -0.91200453376168   -2.34504632429945    2.68010382974443
H          -0.38816806657317   -1.99966750061860    1.26790064739297
O           0.31057186568485    1.05499392365499    1.98565853398821
H           0.66574494078274    1.70277107209649    1.36073834410473
H          -0.66483805080217    0.96047950014324    1.78523004650592
H           0.77982525439214   -0.09874109300870    1.30580885067864
