    19
        -40.91220375
S          -0.41064464539223    1.39622333690772    0.11754043077767
O           0.45914282950925    1.97930607182410   -0.98863883337303
O          -1.37907769300086    0.48797405196568   -0.42595838374282
O           0.37113093470129    0.90107246925405    1.20466898738508
O          -1.16772810176161    2.67305336470335    0.62180196393822
H          -1.75654731649956    2.94890581083820   -0.07756639020258
O          -0.70631945704052   -2.36751018171439   -0.13587514109522
H          -1.08781530104854   -1.69855771604009   -0.71431630616379
H          -1.11057932269899   -2.20338693218692    0.73374336689266
O           1.69590055656932   -1.26266919313645    0.15121557960686
H           1.40265979064937   -0.56853301348017    0.76043482961433
H           0.91550194771758   -1.85725421722664    0.04107569304659
O          -1.72415933653173   -0.87502246653003    1.95565175928014
H          -1.88848565881704   -0.36163983600625    1.15356430110413
H          -0.96111078796503   -0.46073924125548    2.36864413398139
O           1.80019818944159    0.14104622866864   -1.97837857085985
H           1.81845017563527   -0.51113988143502   -1.19722741451507
H           1.02134691263827    1.22014278744081   -1.46605754034836
H           2.70813627329185    0.41872855715507   -2.12432247534343
