    19
        -40.92174052
S          -0.24272770429756    0.57125884101303   -0.64540956550671
O          -1.14680134657383    0.41353225731613    0.56319904134537
O           0.95462111666780    1.29908347411118   -0.28118425239332
O          -0.00286559888510   -0.69890499091679   -1.26518826710416
O          -1.07728602721683    1.44547621454818   -1.60634530473651
H          -0.98635953268875    2.37582742601336   -1.27368554291540
O           2.06587127166269   -0.90227773229482    0.83466773962495
H           1.87140725896532   -0.01476364511211    0.49084716990779
H           2.11676514499655   -1.47593178300878    0.06557397132984
O          -0.80192001422270   -3.02303998106487   -0.16846768178872
H          -0.48616994667126   -2.27500078418283   -0.71017068328737
H          -1.68239347381299   -3.23404010503741   -0.48335515239235
O          -0.24341449722248    3.64828754111594   -0.51515577998044
H           0.40669857494025    2.99855548806838   -0.18943412960816
H           0.23361183901049    4.26217246412655   -1.07933085328994
O          -0.29084152538806   -1.46283532331235    1.92360284514714
H          -0.53874044218429   -2.21763730603801    1.34113213890726
H           0.67368016095370   -1.32814819605997    1.76783607317043
H          -0.82313525814937   -0.38161386929191    1.23086824367351
