    19
        -40.91940438
S           0.39635594051107    0.65913293949921   -0.74226984077201
O          -0.69457947387392   -0.02595808139256   -1.40336811833017
O          -0.09593662206864    1.69275269316348    0.17433485797266
O           1.27745169095200   -0.27938460648358   -0.03799758836595
O           1.25522892280041    1.40353582602322   -1.80409758490620
H           1.74407858072920    0.68142316072779   -2.25224225553964
O           0.32307163913508   -0.92983381731102    2.29572956792344
H           0.72660081033750   -0.78744581151397    1.39980368106502
H           0.98691820451412   -0.65855909824338    2.93327180536770
O          -2.80065673767211   -0.54692966121915   -0.01022345372464
H          -3.52581738534615   -0.10170394042583   -0.45381538067427
H          -2.01541097409270   -0.46437207250624   -0.61919751000155
O           2.52696591977834   -0.85033582306713   -2.28837470408670
H           3.47866747671370   -0.86302978715229   -2.16215574326485
H           2.12480714192222   -0.94655447367820   -1.40331320435818
O          -1.59290015353590    0.66458487113949    1.83839228643294
H          -2.21543725561807    0.14669667993961    1.18767214214798
H          -0.91441989192011   -0.02763453900787    2.18206515356947
H          -0.98498782304143    1.23361551141207    1.16578590947190
