    19
        -40.90499053
S          -1.63031130830995    0.71428868352863    1.07302885425229
O          -1.88997310032168   -0.68423800825773    0.97858669980055
O          -1.76197393694184    1.32362361233252   -0.35867186971213
O          -2.37836547681281    1.50263172673688    1.99676381337334
O          -0.11534903684991    0.94011979146661    1.38270288713353
H           0.37158537955879    0.16274438715694    0.97581779599133
O           0.60866012243312   -1.21750466892904    0.20369243259641
H          -0.32398078893975   -1.43870303511311    0.36363121379999
H           0.69754207019858   -1.07303238787994   -0.76575161332864
O           1.30972811030064   -1.19076813341246   -2.39576232928732
H           1.89302688009720   -0.51229470930969   -2.73933781857810
H           1.87686772294745   -1.93560370676090   -2.12445225206051
O           2.56429635323715   -3.03697793472442   -0.79619272578738
H           2.07871712173617   -2.54067721409368   -0.12057667225544
H           2.31543748041047   -3.95734158204073   -0.69580569814069
O          -1.44717283095738    3.67280950221635    0.74626554573021
H          -1.94042090718659    3.20344231995828    1.44118417042931
H          -0.54840845173910    3.76693300953145    1.07199877715081
H          -1.67990539295714    2.30054832763566   -0.23712121114380
