    19
        -40.90499029
S           1.11849104182665    1.64431058296676    0.59960807359052
O           2.09613187674431    0.61656765047773    0.45731157910744
O           0.21217782111583    1.27839501684910    1.81728304183658
O           1.54341285981174    3.00119875207114    0.71286554799336
O           0.10847564896265    1.56665138441989   -0.59032872762109
H           0.07637059945608    0.60255482507566   -0.86682311514616
O           0.41682390113662   -0.96006389767701   -0.89242001617026
H           1.24165486304778   -0.76270031522391   -0.41800710142373
H          -0.15177813053599   -1.46000122923232   -0.26365813451978
O          -1.19394741859443   -2.70463168559488    0.37728979796694
H          -0.99894215357166   -3.26189683815620   -0.39815667323213
H          -2.14346472137124   -2.57476326683483    0.39050928851211
O          -0.20886687871644   -3.48353290879576   -2.06555430285514
H           0.10406136856990   -2.56678076642411   -2.04852970090745
H           0.56040652483121   -4.03562576020437   -2.21575022337902
O          -0.93441613860938    3.60808587906434    1.50775253163729
H          -0.37986260026285    2.05847035443680    1.94784102484473
H          -0.01850293351456    3.81428815894141    1.25254531878209
H          -1.44822553040383    3.61947405384107    0.69622180100511
