    19
        -40.90499008
S          -0.78941093336986   -1.29146655280651    1.42073446198728
O          -2.00017409499218   -0.81363810115541    0.55835373669034
O          -0.34022717266369   -0.18279566615820    2.19618864288519
O          -1.12460170194873   -2.51269317907083    2.07709404813224
O           0.27592412288054   -1.62397667912021    0.32682134133698
H           0.73357405390636   -0.75777654266541    0.11026626612700
O           2.68314618916627    2.89219415049967   -0.94290061593802
H           2.51761068176730    2.05638137409558   -0.48176979729400
H           3.01965120701824    3.50711028431725   -0.28887220071224
O           1.10611582122989    0.79686335986239    0.17731202931374
H           0.53215358024357    1.32883145728833   -0.41939645981718
H           0.69375959006373    0.83184145385778    1.05658999018523
O           0.04419786684965    2.51378523124164   -1.60484275551185
H           0.93090841726147    2.91600859238640   -1.56186680261998
H          -0.09433204519908    2.25094250607776   -2.51607306184197
O          -2.29279795188125   -3.30113445738101   -0.19273912728210
H          -1.98420660066880   -3.41646118185134    0.72271991796793
H          -2.34870307395726   -1.62760738503708    0.12007802509861
H          -1.56258796575449   -3.56640866446152   -0.75769762866290
