    19
        -40.92079102
S           0.88519615502375    0.90434107921836    0.77858117871409
O           1.52455532351293   -0.34300632965553    0.35556232335389
O           1.25739962648309    2.02401640813796   -0.04736895881904
O          -0.55191660110913    0.72886061109026    0.93649129035643
O           1.42614943586474    1.19825985030801    2.23674030917343
H           2.33327840782237    1.44707193156369    2.08936033644505
O          -1.39629646387467   -0.22616145482034   -1.40461471017190
H          -0.76234275017397    0.23221770038948   -2.00484794826277
H          -1.34072523902734    0.28518801025939   -0.57194322763193
O           0.55712826453466    1.19595055547792   -2.45740881342082
H           0.91283800781919    1.52044378463022   -1.60180911399360
H           0.47103863291901    1.96750233113016   -3.02049194969090
O          -1.30806675640074   -1.60384396565210    1.86816063679247
H          -2.26413073995187   -1.59982475561419    1.94684204042575
H          -1.03423004834433   -0.66839930505302    1.71706375001674
O          -0.10349929307038   -2.07253969201912   -0.34105358868865
H          -0.60615353237450   -2.13766997059740    0.53820607704110
H          -0.69941912251284   -1.41360927871675   -0.93132018003202
H           0.69919669309284   -1.43879751070056   -0.08614946193295
