    19
        -40.91247157
S          -0.09925172185226    1.61410633563531   -0.59586248503751
O          -0.36309065421749    2.60894879258484    0.39456478416584
O           1.10607606344079    0.86131562625925   -0.50547357584176
O          -1.31047565054635    0.69348603038435   -0.71769139473852
O          -0.07840827195711    2.35089561524626   -2.00151888369874
H          -0.60806607739498    3.13962746263779   -1.90683365540535
O           0.64261164971929   -1.72779431290304    2.15523327639302
H           0.09247022900810   -0.92184796426649    2.16244263759681
H           1.32512373257823   -1.59020502836357    2.81403906559594
O           1.45920109127979   -1.83328191957748   -0.40609356986230
H           1.17513130549069   -1.98907760903256    0.51986269500686
H           1.67654591644177   -0.88867397186021   -0.43554179708984
O          -0.87385137244121    0.55029076367982    2.09256105296529
H          -1.72709920023997    0.31960887437646    1.71710912536961
H          -0.62340256047477    1.39345514747122    1.68784979002320
O          -0.62818066419962   -1.42161471463158   -1.82549119060927
H           0.16831878314493   -1.71840408850315   -1.26232018496804
H          -1.05820269287943   -0.22507411493234   -1.19236712915438
H          -0.27544989487024   -1.21576093422788   -2.69446858070455
