    19
        -40.92174066
S          -0.53957597664961   -0.17975074639030    0.69109320589136
O          -0.24495312862079   -1.56808427979480    0.40565003695540
O           0.74557974535127    0.58592025997471    0.94647053370976
O          -1.32954139129212    0.47954720305744   -0.30697505063383
O          -1.27884096567134   -0.10132769799118    2.04454766288221
H          -0.85024579645432   -0.78156842062379    2.62582215744404
O           0.45481876460447   -0.98962824028104   -2.14446896921716
H           0.24615788051571   -1.41741088921281   -1.29765677676933
H          -0.37727519872747   -0.63901065640685   -2.47290101668414
O          -0.04188581377454   -2.18678380381717    2.97207509493756
H          -0.58202700970060   -2.93992561311855    3.22475916622821
H           0.11848141275010   -2.26196115439257    2.01317298769745
O          -0.42195794496089    2.58849346371778   -1.71167814599797
H          -0.64176687333664    3.39579071872652   -1.24389888726250
H          -0.90792980882126    1.86914500966046   -1.26567000975012
O           1.75748358567830    1.14015689159754   -1.23821831089259
H           1.49809271966214    0.32552031795350   -1.72998636130084
H           1.12585584211039    1.83233601726744   -1.54238483563092
H           1.26952998128950    0.84854163391866    0.03024752300844
