    19
        -40.91447097
S           0.36518221388027    0.63462167836530    1.02830209837691
O           0.20882465127516    1.43616186937985   -0.15709153643179
O           1.63529583404430    0.74603591899002    1.67393954014272
O          -0.76653345177415    0.89882711391040    2.00553227931259
O           0.10958178070626   -0.86625868223260    0.65443278524863
H           0.92298060302574   -1.22323900740234    0.24512405612253
O           1.02541124648414   -0.40765656101939   -2.07855733622337
H           0.91047463066346    0.43025599103880   -1.61208799553256
H           1.87701140051310   -0.75352153857519   -1.79866763483872
O           2.71836183168578   -1.13535035123007    0.13869604551739
H           3.26275587205185   -1.78455419236679    0.59032665006851
H           2.64307139832640   -0.36785135751921    0.73590539895264
O          -1.82159642596451    0.32376794788901   -1.52647411790999
H          -1.32487060491607   -0.37381304365233   -1.96704903688967
H          -1.13950939809083    0.92672948935769   -1.18128572595204
O          -2.86905339368623    0.11024594266934    0.85817007183720
H          -1.65124527475860    0.55510760699662    1.59321860280272
H          -3.54239160093980    0.79493823414512    0.88590654773948
H          -2.56375132255039    0.05555292131439   -0.08834067232928
