    19
        -40.91320656
S          -0.42692172828917   -0.36425751842409   -0.44625197119721
O           0.58340775812397   -0.71245837022693    0.68768401409155
O           0.20615909102410    0.57284920227062   -1.32359963278705
O          -0.96857747191726   -1.55450925459721   -1.02147053991124
O          -1.56121702571527    0.33342659716515    0.33212028530791
H          -1.15404222618993    1.08525180211034    0.89668334338941
O           1.66046037145869   -1.75614380423874   -2.03136036472432
H           1.53605980992169   -0.80439807291750   -2.06645053490797
H           0.77753246698495   -2.13421801362276   -2.02541338430882
O           0.94354549800211    3.00488929333799   -0.46933328986487
H           0.56670378683093    3.65943238484088   -1.06060878058565
H           0.81643612321571    2.13750567842408   -0.89919405307286
O          -0.27035124780055    2.06000515831922    1.66913728955321
H           0.18376968226954    2.57631620949024    0.95693987985683
H           0.41822901299987    1.54037470040648    2.09322739615973
O          -0.84723797572589   -2.77982972401606    1.34993342228385
H           0.26200457921784   -1.54921944763904    1.10986882732066
H          -1.65011481042089   -2.58977879900113    1.84146265702714
H          -1.07584572396347   -2.72523801166364    0.40662541640119
