    19
        -40.92174075
S           0.51500673639419    0.69237767108414   -0.24013073258514
O           0.04050254604986   -0.27119238576868   -1.31228812208781
O          -0.58696397325257    1.51326348581982    0.21569235058407
O           1.20444579773924   -0.01123396533928    0.80129981861764
O           1.52363209941343    1.59182371947935   -0.98704103556071
H           0.97737474600222    2.24466603727762   -1.49670671566465
O          -1.54254701760339   -0.47652711435672    1.78227213003059
H          -0.80114942713496   -0.59124224940217    2.38254545687314
H          -1.37706768154092    0.35792513746486    1.31324294772692
O           1.29650869041647   -2.69863228115331    0.91865977403458
H           1.39073895218017   -1.73024082204953    0.99570506097607
H           2.06349943261740   -3.00861571108982    0.43438019817788
O          -0.34313935592365    3.19452518773655   -1.81490320538261
H          -0.28620733709512    4.11395769954501   -1.54272573953144
H          -0.79021113127335    2.71252752498472   -1.09471626787022
O          -1.06112929624010   -2.18067228689747   -0.19696976677951
H          -0.48052910707545   -1.13403115496296   -0.90332132091458
H          -0.27142073571975   -2.62552892653049    0.18905686842735
H          -1.47134394803216   -1.69314955580960    0.55594831093800
