    19
        -40.91833707
S           0.37695375383180    0.06917394706352   -0.92675967822810
O           0.04785711284175   -1.27294340543243   -0.53127317121919
O           1.73270380000028    0.31282457905076   -1.30246511921862
O          -0.57403007100644    0.55542997977341   -2.01751654057719
O           0.00634762580912    1.00447754519292    0.27748111721591
H           0.42863453662810    0.52633947328718    1.08421948965109
O          -2.74413679163498    0.87585579925785    0.62793499378267
H          -3.18427869274491    1.72115803619750    0.52090301465065
H          -1.78938573335373    1.05084870311271    0.62329505189933
O           3.43613542676937   -0.23309170395179    0.69550212400737
H           2.95654592428155   -0.09691269678010   -0.14460775977871
H           4.04218085561541    0.50523264217576    0.78365515814110
O           1.12294535004512   -0.49464300977117    1.96081859615953
H           0.78688044407124   -1.29835305203011    1.54611822052253
H           2.06921657791776   -0.43372153306674    1.68665859749372
O          -2.52256052626688   -0.90059221892813   -1.36972444707965
H          -1.89641568565331   -1.53914787668032   -0.99912942474242
H          -2.85002609713651   -0.36923213152775   -0.61288880045527
H          -1.44556783184345    0.01729690981084   -1.90222143117557
