    19
        -40.92217258
S          -0.53459752760435    0.96527656853839   -0.83076944562928
O          -0.23797590121254    2.36886390375845   -0.85731569933407
O           0.57749739779580    0.07935117417772   -1.12710244443854
O          -1.22764709014207    0.54413362131753    0.39333232650185
O          -1.58331524403556    0.69388448548726   -2.00780360976672
H          -1.98627198810184    1.54169241271625   -2.17046576280481
O           1.01345863319117    1.89757105051673    1.47700804206927
H           0.69112777917015    2.21645415891037    0.61536531289158
H           0.25810619406639    1.94884194702948    2.06751132753614
O           1.97246491514445   -0.56238894680740    1.07103252489235
H           1.87842913135923   -0.43881399307722    0.10982996041788
H           1.82582242991545    0.34258658185789    1.42529209084793
O          -0.50223459256895   -2.30080428942461   -1.17985818825414
H          -0.03224177415526   -1.45603757902538   -1.36830402092756
H          -1.35993923309934   -2.22754397991107   -1.60290209083592
O          -0.30079944063186   -1.57606993525432    1.26818429762132
H           0.72031811420977   -1.25808407615248    1.30498880138888
H          -0.78354645819000   -0.67453657881471    1.00573681401919
H          -0.38865534510041   -2.10437653582629    0.40623979380817
