    19
        -40.91833241
S          -1.04323473535994   -1.15083098064920    0.75187828808740
O          -2.04792294904971   -1.47690633492409   -0.22930395700011
O           0.32055669123003   -1.38019551572901    0.31685905798679
O          -1.21319342530837    0.21245516834984    1.27876540476149
O          -1.27614400286353   -2.11612203179455    1.98595655252114
H          -2.22250979528434   -2.10993889597842    2.09276064890462
O          -0.54088355574495   -0.57427649313180   -2.18796776233128
H          -1.25478762927982   -0.87724777933879   -1.58742783986108
H           0.19504113798570   -1.15697791946181   -1.97896996089200
O           0.24196957164119    1.87013925083442   -1.67575372292184
H          -0.04191635873378    0.94492379329450   -1.91814338787911
H          -0.46413497095045    2.44883324445984   -1.96930204618289
O           2.37023862723257    0.00683934459925    1.08350177372988
H           1.65825038412675   -0.65463732168923    0.88760907541561
H           3.03181128881428   -0.09440673748959    0.39606921759864
O           0.59672301313216    1.81092883920167    0.83856085782567
H           0.49445398310344    1.91861087825012   -0.18095780319885
H          -0.22163942037296    1.16149603703870    1.10330306918039
H           1.41732215569187    1.21731344405969    0.99256252425380
