    19
        -40.91394138
S           0.01499082573164    0.87646196992268    0.66735516255183
O          -0.91232371036210    1.09773031927142   -0.40053325540101
O          -0.28027280719344   -0.52445218958204    1.28879866117904
O           1.39835113497460    0.98903192820929    0.33896577948905
O          -0.29541103384630    1.80611519909705    1.86042764215573
H          -1.20433745589812    1.56403317510805    2.15854251731911
O          -0.00089581027541   -0.45802750403531   -2.42903230611526
H           0.88484967174970   -0.06303449088597   -2.56826020090515
H          -0.49131310842535    0.20510134638679   -1.91398021943608
O          -2.44061474168273    0.52133978693354    2.61329680669003
H          -2.46127078557404    0.33951334326483    3.55652659132222
H          -1.97415986579528   -0.21186392995592    2.18821922208936
O           2.43880405291754    0.65431293666806   -2.14708751400475
H           3.19254762610948    0.07377747173191   -2.02539754707395
H           2.15658367204214    0.91966812550416   -1.25380189829184
O           0.24975681452873   -2.16697897241616   -0.53346384923460
H          -0.45107047638173   -2.81463938401352   -0.63952400340975
H           0.19872391347088   -1.56495485645662   -1.34864458444783
H          -0.02293790606697   -1.24313427473651    0.58759298553749
