    19
        -40.92079069
S          -0.07177687551465    1.33448685136713    0.64879478167206
O           0.35178288867915    2.33973351249340   -0.29134828486544
O          -1.37551040676611    0.76113999580178    0.30867038093817
O           0.91319653816905    0.28950961302624    0.89126143054587
O          -0.26426553535142    2.04978063718426    2.04740479831657
H          -0.82058471212407    2.79390892361751    1.83929348510660
O           0.88717032875604   -1.21292493646038   -1.31017642755792
H           0.68867916639042   -0.51624278360296   -1.97931210064874
H           1.19424221851750   -0.70702542659031   -0.53058313006618
O           0.30318609785512    1.02098887021486   -2.58126471914025
H           0.25776235646955    1.58141173531085   -1.77638660101954
H           0.86458111457994    1.49022829144645   -3.20149745048548
O          -0.00313226596832   -1.86772773374773    2.06789272718415
H           0.72912313172271   -2.47417415637638    2.19568585116211
H           0.39156932515485   -0.99895643638177    1.81825156077992
O          -1.26938154247023   -1.66951058235922   -0.14774712727065
H          -1.46559356772006   -0.64595935162999    0.00899315479504
H          -0.40131131751061   -1.61446444932965   -0.76560117493024
H          -0.90973695287556   -1.95420257398183    0.75766882546380
