    19
        -40.92007379
S          -0.16297872230658    1.33411447080730   -0.37472734587699
O           0.05558312022156    2.22173449463611    0.74530541037181
O           1.00309937221292    0.62013349429189   -0.82406258330009
O          -1.28418172271734    0.40831132769557   -0.11621700275979
O          -0.64646849589850    2.23533955158698   -1.58642526679306
H          -1.14941623048293    2.92740519235551   -1.16758029678844
O           1.00907250271175    0.51842517917517    2.47349072370321
H           0.74985155625825    1.23308500634082    1.84045277445436
H           0.81213179035706    0.85007688709188    3.35235487558268
O           1.07176760273639   -1.99221158181132   -0.56358697379721
H           0.37375149587602   -2.07496258662293   -1.25443731716531
H           1.38354942837803   -1.06826523027128   -0.69036068747543
O          -0.89887392517797   -1.26248958386283   -2.19248229952200
H          -0.51757507279532   -0.71690000492534   -2.88316880724194
H          -1.20478382763162   -0.64391836719056   -1.50300171523814
O          -0.31825600474825   -1.36200552156212    1.37958805703631
H          -0.87828703434366   -0.69851575261223    0.82927942497145
H           0.33463615436841   -1.78507653904730    0.59501840709413
H           0.26737802298678   -0.74428044608201    1.94056062280844
