    19
        -40.91885168
S           0.74903998680471   -0.97391851611311   -0.00219720818064
O          -0.66342576061273   -0.73016963309639    0.42560690707173
O           0.94871195603744   -0.41990426855671   -1.32473643221725
O           1.66675153214130   -0.47210320376851    0.99028059318161
O           0.91109049875274   -2.51911559698920   -0.06592289781678
H           0.15733492295289   -2.80549542925284   -0.62018254128320
O           1.17712649743108    1.85437330276383    2.01916114130959
H           1.12442425890619    1.72060711052427    2.96785446763354
H           1.51535641153425    1.00066873159027    1.63934904773029
O           0.05343592564969    1.96550849543640   -1.69661152441725
H           0.51269585337929    1.08178441662951   -1.63697024806478
H          -0.52101058939178    1.91346414718333   -2.46348345273600
O          -1.51436601918751   -2.70705195425819   -1.10558484874197
H          -1.47319081407288   -1.88419424710363   -0.58188519885580
H          -2.10587803899475   -3.30245595194930   -0.63953679182261
O          -0.91604127024121    1.72084679045275    0.61412928483240
H          -0.58854144778128    1.97413246324625   -0.33908468512328
H          -0.91432284029329    0.65664038985803    0.57795616256442
H          -0.11919106303171    1.92638296339466    1.24185821493028
