    19
        -40.91793141
S           1.68467516249500    0.49056706263784    0.08301690814330
O           1.37934276022445   -0.93189593463377   -0.14074872302910
O           2.14828877486847    1.13782655896602   -1.12261487126536
O           0.57414276947131    1.16907300877865    0.71870997448242
O           2.87606725695398    0.51216532975817    1.12244246496095
H           3.63011177897678    0.20295426533955    0.62775004843870
O          -2.37959490590153   -1.34496513279218    0.28630848998870
H          -2.47898019741004   -2.27267394309147    0.50961519949108
H          -1.91973933102791   -0.92167406985555    1.06234755582209
O          -0.33788328294973    1.48456046433052   -1.87370667275522
H          -0.59042347062117    1.86161856085754   -1.02266027814675
H           0.64560692875307    1.48225649463575   -1.84125003637529
O          -1.02011534637578   -0.24430065718988    2.22938026718809
H          -1.43042108591654    0.39996735592139    2.80934799952023
H          -0.34057098206575    0.25245992893446    1.71431084887661
O          -0.64437692834505   -1.01339800556319   -1.53691991859149
H          -0.64731778168723   -0.01811753515490   -1.80581841817918
H           0.25972183216401   -1.08830309542594   -0.96581570777123
H          -1.40853394160948   -1.15812065646005   -0.85369511080290
