    19
        -40.92161579
S          -0.21550937678235    0.86331962756672    0.58812834433409
O          -1.47894894268254    0.26427092535129    0.28094588824405
O           0.31869358838446    1.72395907722051   -0.44187475518877
O          -0.33207590615838    1.65396153133430    1.90784721550412
O           0.82754148786904   -0.20147614751797    0.92740315507467
H           0.82271653200141   -1.02536807302860    0.22661728564289
O          -0.29493049470759   -0.07528220915727   -2.36328829268595
H          -1.25020534792080   -0.07032377044965   -2.26304483108667
H           0.01851368298972    0.70455449106462   -1.87506611240878
O          -1.83238942622504   -2.40644239801663    0.12490511836906
H          -1.83378703223173   -1.44625286253792    0.29291558655304
H          -2.71897719560528   -2.64107842703936   -0.15359469912112
O           0.65363287072478   -1.99178032889780   -0.77269716306274
H          -0.17498394001446   -2.42668520316058   -0.48377039454400
H           0.40365912966739   -1.42316613850329   -1.53887157509437
O           2.11556803187228    2.40084069657837    1.45239511927480
H           1.77375430080236    2.41809754397792    0.54395868110988
H           0.55619584362435    2.07888748441716    2.01531508558506
H           2.64153219427162    1.59996418078089    1.53177633342594
