    19
        -40.92120589
S           0.28319282325830    1.31490625806805   -0.30643464643932
O          -0.51021858297075    2.38995950032964    0.22245983244371
O           0.92266557434803    0.46815642360852    0.68730734042960
O          -0.42152305926590    0.51265307829517   -1.30715429736163
O           1.49900318629307    1.98683779897086   -1.09486427743162
H           1.14317835514771    2.81017256381073   -1.41557094360121
O          -2.31024364507714    0.66192912236415    1.16777840036138
H          -1.70738062565226    1.33076924810502    0.78921990588187
H          -2.88196789338450    1.13059689322062    1.77942547591968
O           2.21226059764730   -1.31397630267744   -0.73387375677752
H           2.60965936213752   -0.86692232657809   -1.48340339980956
H           1.91755040035136   -0.60565204793441   -0.11622285876600
O          -0.73698043951933   -1.45578068110760    1.52802639635136
H           0.01878119516519   -0.83995655988941    1.57076297094747
H          -1.51135259611854   -0.85428527769096    1.49461240289649
O          -0.27346490868010   -1.91898886610353   -0.87990092769739
H          -0.54017215711911   -1.88933572148249    0.15342197125495
H          -0.45343747539087   -0.92094345957939   -1.16482628768176
H           0.74044987809713   -1.94013962287963   -0.89076328249856
