    19
        -40.91898890
S          -0.35239929378230   -0.90134800529546    0.52448438425751
O           0.78825647196383   -1.20738606977564   -0.31343922542054
O           0.04944902043668   -0.23009559991207    1.76281699764308
O          -1.34039381711344   -0.09479576946004   -0.20593575404723
O          -1.05163190259139   -2.22107058336475    0.95525333955392
H          -1.51432733929017   -2.52029345869960    0.14434563815144
O          -0.34895104936698    2.28603216122538   -0.48320876858009
H          -0.76187394685016    1.38082200200849   -0.46883977115524
H          -1.04584158523965    2.89791737410909   -0.23693233415723
O          -2.37265073950482   -2.24594933389552   -1.32478570099169
H          -3.33080008464100   -2.24387899562381   -1.26226794794405
H          -2.07944124391960   -1.32531268068656   -1.17817448038502
O           2.88411041906737    0.29794217676004   -0.31880296622753
H           2.18089133359295   -0.40653505089977   -0.32854240500165
H           2.97076855679349    0.59603601697874   -1.22708031052946
O           1.45881430794150    1.70938687098104    1.20597730586172
H           0.89084615648533    0.88485690468029    1.58994771884328
H           2.17960299389872    1.23184784137384    0.62949522313446
H           0.79557174211853    2.11182421944294    0.53568907699476
