    19
        -40.91318681
S          -0.63890011426145   -2.06414118254348   -0.30431567390608
O          -0.81378110598224   -3.47020952115840   -0.28454650071803
O           0.41387695974684   -1.65294680208178   -1.30864949536591
O          -1.79334199162543   -1.21854997776764   -0.39545245084646
O           0.05739158539457   -1.68027385398751    1.10017733298025
H           0.44292925160077   -2.50377521057876    1.38750786731256
O          -1.70558704987731    1.38395775348453   -0.18765792114241
H          -1.85761584262349    0.41115323038257   -0.21420116877570
H          -2.52122381983076    1.79705730671262   -0.47536742311267
O           0.20978105474209    1.08409647988659    1.81640552075662
H          -0.52997179285062    1.43070751371047    1.29574139340671
H           0.11596241612946    0.12443687064133    1.79295932408847
O           2.24508508719234    1.49650336591264    0.13040903072906
H           2.98324562811594    0.94311269974162    0.38758924300895
H           1.58849625897050    1.45930866281413    0.86348547713932
O           0.47081850000837    0.78688812278165   -1.68919953280584
H           1.23421588601708    1.10379048171246   -1.14307347257794
H           0.42539263557404   -0.58902799264860   -1.51370456899566
H          -0.32677355657318    1.15791205263507   -1.25810698139506
