    19
        -40.92136491
S           1.06167372752513   -0.02978157052816    0.06781483761792
O           0.15502234272155   -0.32325327556610   -1.16212993240522
O           0.19806976482115    0.37514680553288    1.15045166310353
O           1.90173923005281   -1.14881149016238    0.35170613830078
O           1.90599283035149    1.13954345153338   -0.42708184671318
H           1.28286096668803    1.79516724833762   -0.90906773828302
O           0.15144429054402    2.55845084147491   -1.58068746673243
H          -0.22085257177481    1.92043752702394   -2.19634191204336
H          -0.50724498940407    2.65222855356543   -0.84800127030900
O          -1.37070481311556    2.41828303268661    0.56957100066132
H          -1.30448318382185    3.08488113247817    1.25589546644711
H          -0.86047081281137    1.64208709031919    0.88717669004899
O           0.42784330404580   -3.31078311450055    0.91999035334980
H           0.77226681789215   -4.04250036705408    0.40398779496732
H           1.08055667081274   -2.58776713549932    0.84091587150366
O          -1.52477867664928   -1.69886302020280    0.13731441572347
H          -0.60027977359072   -0.90059646793956   -0.79445526984867
H          -0.94647739407701   -2.43855049863626    0.44140079652681
H          -1.60217773024616   -1.10531876295902    0.89154041804435
