    19
        -40.92122916
S          -0.94185706391764    0.00947740370032   -0.62277702603215
O          -0.28199543643268    1.26944017596618    0.00218822505236
O          -0.09926781681077   -1.12527904410304   -0.32267300992231
O          -2.29331017039754   -0.11712406535321   -0.17963742395424
O          -0.90373094689187    0.32426858905494   -2.11223495862881
H           0.06237650809723    0.47857076685893   -2.40942175524188
O           2.36066543654407   -0.13226697498037   -0.33813924409679
H           2.32211493149178    0.56216245652186    0.32334990450453
H           1.53715504604478   -0.65170679712669   -0.23706243536210
O           1.54757056975432    0.58535133778226   -2.73595987153501
H           1.80279939774142   -0.11932038232611   -3.33625500452921
H           1.99442338275174    0.39273017842977   -1.87098229654225
O          -1.58645250252361   -1.49921278514558    2.01716240590284
H          -2.14416999502221   -1.11848412350329    1.31657010523713
H          -0.93229790940979   -2.02417930244141    1.54382685904512
O          -0.37609815199286    0.78071331022484    2.50611367883477
H          -0.79076559629680   -0.12306809102740    2.47710819193665
H          -0.27979248360635    1.16171589877688    1.00798327243646
H          -0.99736719903922    1.34621144856371    2.97084039260973
