    19
        -40.91892646
S          -1.35563480207558    0.24434940842211    0.40120831815110
O          -2.02439721894745    0.82650025310597   -0.74246543034247
O          -0.89033953286026   -1.10610798226577    0.20464419376130
O          -0.26614597058192    1.11360252897467    0.88423100536120
O          -2.40808471671224    0.19725399641826    1.58045336184100
H          -2.87546299977521    1.02496168215290    1.51635313969905
O           1.78294851485233   -1.64529020840679   -0.14767671255687
H           1.76326283175626   -1.58581153195096    0.83435565479476
H           0.87131845279528   -1.89045043816826   -0.37258324411484
O           0.83279417635468   -1.07739616186015    2.28430197136583
H           0.02930889087669   -1.24529771579742    1.76398182374405
H           0.83000026575214   -0.12789343570961    2.43711616737729
O          -0.19488493595827    0.74520903265868   -2.58475643422887
H          -0.97356923465900    0.72230249355681   -1.97137704641461
H          -0.33587983507345    1.49015242819936   -3.17301662856314
O           1.56573983896022    0.77166788586419   -0.75301171703582
H           0.99408847182501    0.77979965096840   -1.60208352281963
H           0.86630759358091    1.01426761435233   -0.00555024454013
H           1.78863020943423   -0.25181950935624   -0.55412465397857
