    19
        -40.92136390
S           1.22513560898106    0.64731415841719    0.00433617425161
O           1.05708320222724   -0.67269458635346   -0.62892770444136
O           1.54245606416719    1.67704227251677   -0.95355118624962
O           0.10015366584242    0.95496487837290    0.85837910082620
O           2.48636242567168    0.48929941287034    0.95579155827702
H           3.22598786455321    0.73695671392728    0.40812970905275
O          -1.32974938279891   -0.68088808716548   -1.40075039444826
H          -0.32712783804246   -0.82888653047503   -1.23423153743946
H          -1.36089150903398    0.31955459495099   -1.61598733045335
O           0.35831950962238   -2.12435518304804    1.51816566638220
H           0.73784620953197   -1.72135441340233    0.71463272553703
H           0.87661913520115   -1.79016755307578    2.25223501113538
O          -1.00134189865598    1.84024129013175   -1.62433259500282
H          -0.02354905676029    1.89191131250753   -1.52601371293202
H          -1.35676931181900    2.28949390912633   -0.85236316139320
O          -1.87455191593179   -0.75967797644498    1.01508429640464
H          -1.72710595334567   -0.78485732042361   -0.38602641157543
H          -1.31387074868522   -1.50486465116154    1.32516890935682
H          -1.29500607050325    0.02096774883547    1.17026089271410
