    19
        -40.90679084
S          -0.70995604416268    0.51874603508710    0.86165704916236
O          -1.68754027344690    0.16681857945146   -0.12942653497624
O           0.10286326723597   -0.72709518976502    1.21229619704043
O           0.13989028829233    1.62291035352667    0.56024181374940
O          -1.45781950124398    0.85804626618420    2.19441069350473
H          -2.18272879642307    0.24938322405090    2.32377055892251
O           1.57849783406716    1.04863396095839    2.90831076545264
H           1.22754481467527    1.57214102307627    2.18099442784558
H           1.40966182386685    0.13322899768811    2.67523931037686
O           1.16619728273314   -1.04860541273500   -2.34471851356707
H           2.09341242612541   -0.92093580943466   -2.13814247764184
H           0.76340641112066   -0.15124774896288   -2.39884984957311
O          -0.05311893721837    1.32021727929269   -2.13141413159437
H           0.19485006220977    1.66673899650077   -1.26059036178976
H          -0.99019502696565    1.11590699882395   -2.05717834512969
O          -0.44712603437884   -2.23190982223806   -0.66774509186236
H          -1.27550536081942   -1.78939196568070   -0.89367297264648
H           0.20956015143773   -1.93651426891671   -1.35824254034089
H          -0.08189440704999   -1.46707150691016    0.46305997306265
