    19
        -40.92123221
S           0.36602527281826   -0.14617113170106   -1.14675657947859
O          -0.93524271377701   -0.78025223623201   -1.07574354346272
O           0.25868233940704    1.22598289978645   -0.48178380258347
O           1.44212944885286   -0.90516509571023   -0.59786700426952
O           0.67618390217589    0.21013956955782   -2.61545894796697
H          -0.13035927390025    0.69314787317627   -2.92177193952922
O           2.42783734991521   -0.58089679104310    1.88642688363290
H           2.26426605922217   -0.73042492001517    0.93656136978928
H           2.37003180003673   -1.44317238407492    2.30358289358084
O          -1.31327692759689   -1.27158548930545    1.52767851406804
H          -1.20331608686856   -1.24210463801924    0.55722367343674
H          -2.24674598126146   -1.41794259336181    1.69301290506488
O          -1.69488439305932    1.28578340886268   -2.63001618932138
H          -1.59291462744125    2.02240369737101   -2.02035639011344
H          -1.85601595586098    0.49716461832357   -2.08698344680580
O           0.22011580788409    0.86394498706794    1.95907597404708
H           0.25114516750682    1.14974100280103    0.60799785494814
H          -0.41453544184147    0.11335119551295    1.99939084083217
H           1.11087426381337    0.45605602699010    2.10578690436454
