    19
        -40.91483121
S           0.73556304006552    0.78556719166912   -1.02069250059853
O           0.59217363693042    0.01579253669223   -2.32576359169144
O          -0.54417374508712    1.29172843837401   -0.59718754249691
O           1.47092490652719    0.03314922935864   -0.06137911688178
O           1.60206650420426    2.01923155075526   -1.45080868982336
H           1.05591998445199    2.58544335222238   -1.99284944099718
O          -1.00211235545646    1.71503784672910    2.07718588308353
H          -0.84742125678861    1.68227233645330    1.11893543375846
H          -1.94828135016571    1.81673473111097    2.19851313159522
O           0.11882476797071   -0.78861055150508    2.23628698304656
H           0.87380881483427   -0.58127562749680    1.67013885654028
H          -0.25371991898598    0.07777471938175    2.47804041050861
O          -1.37015283673829   -1.28584267107010    0.09641248484488
H          -1.40227674616845   -0.36789061210186   -0.19867647602064
H          -0.93432915963404   -1.25838966380636    0.98467127981362
O           0.44873086857773   -2.29155193875342   -1.43817406618778
H           0.55053286527561   -1.01452630266319   -2.07565296401467
H           1.20153454128287   -2.34257625507472   -0.84027461000620
H          -0.34761255124234   -2.09206832022780   -0.85872546436658
