    19
        -40.92087806
S           0.68499643618892    0.94740881819761    0.26509489875824
O           1.12162208639993    0.26212974844621    1.43855161737635
O           1.26293478904239    0.48984514174607   -0.98104489212603
O          -0.83595622922719    0.89366382244405    0.13376614585773
O           0.95697678787753    2.45988725933869    0.42464645924931
H           0.66548095228195    2.84613968622036   -0.43677914835392
O          -0.29959810466498   -1.68780322103911    2.62347150740114
H          -0.63482684663651   -1.31725834718296    3.44197985293959
H           0.37124742236841   -1.06066839199650    2.29277757000674
O           0.46578368547882   -2.05172513005821   -1.28789034791589
H           0.59092185606303   -2.33772626725753   -2.19451514173790
H           0.89653347075065   -1.17980482800092   -1.20417472080549
O           0.04040742118326    2.65274616883752   -2.00675818739651
H          -0.88280035765124    2.40631691036959   -1.89952299149385
H           0.54302587584447    1.82330257683785   -2.06008420174526
O          -1.56104222536856   -1.45166524707733    0.32067279717046
H          -1.22389452719834   -1.69050131726447    1.22112859111030
H          -1.22949138425726   -0.13527433931491    0.21848044905800
H          -0.93232111844285   -1.86901302320619   -0.30980024731267
