    19
        -40.92136500
S           0.10080929154404   -1.01727577596085   -0.27726072642637
O          -0.49797767351611   -1.69825969842542   -1.38007587500844
O           0.91466884759011    0.21385005212940   -0.77049009240136
O          -0.82437326303940   -0.54649452241297    0.72499672508425
O           1.18473751831383   -1.89119058512720    0.34452593848029
H           1.79398319128978   -1.28606610977069    0.90424362489572
O           2.53404391083521   -0.16742248448387    1.62100588020534
H           2.74067249650037    0.45697482178730    0.91953065830348
H           1.81734806552005    0.25024257493890    2.16097431277628
O           0.31859630306778    0.73919053140905    2.72908262465666
H          -0.21587474556935    0.30778971855502    2.02776824633762
H           0.01070492837410    0.37999383965711    3.56332581199811
O          -2.17525889464675   -0.08372268960333   -2.70232469954863
H          -1.68589371450815   -0.80488072142259   -2.26013224840599
H          -1.97243987176248   -0.15424966020410   -3.63729329826621
O          -1.11377650113886    1.69987050529559   -1.05392121979720
H          -1.60496504938122    1.19858048873953   -1.74773487640220
H          -1.53862066424277    1.47070240115569   -0.22075382522204
H           0.21361580458546    0.93236731437065   -0.94546696103314
