    19
        -40.92453819
S          -1.26042140680125    0.74991526566662    0.41445777696088
O          -0.33861929829258    0.77830516850307    1.54487898828108
O          -0.74337138870558    1.45131380342582   -0.74180287201824
O          -1.65885379058766   -0.61847116829009    0.10545132502341
O          -2.56227809932956    1.52422434777969    0.86233174973752
H          -2.87559457972659    1.05490707338417    1.63006058668945
O           1.77111842366059    1.46967285042006   -0.09310454560333
H           0.86433394657545    1.64893711134953   -0.44403683201986
H           1.65446210871378    1.51056733354065    0.86353260364283
O           0.54818336327950   -1.65174315009644    1.37841908771157
H           0.26319175706573   -0.73504404457338    1.62441967515081
H          -0.26487429460160   -2.06467136756863    1.06448527338217
O           1.81242461441347   -0.97793806218467   -0.69409830585349
H           1.94575511985491    0.03860363311181   -0.48369398625703
H           1.40332748310760   -1.37221506023107    0.18347156276798
O          -0.28658230259288   -0.88924128232885   -2.08653976000744
H          -0.36783436525713    0.01388892825694   -2.41446618444473
H           1.02283334142065   -1.00994202349525   -1.38108746405990
H          -0.92720063350109   -0.92106936802783   -1.33267868303473
