    19
        -40.92179449
S           0.66729738595892   -0.61172407057101   -0.32979272919418
O           0.12143440767821   -0.55893178874602    1.12412703972916
O          -0.04470997204083    0.37952779560491   -1.11151032443775
O           2.08314283780559   -0.46269099115375   -0.32867275335233
O           0.25977192988429   -2.01010964333186   -0.78078063034009
H          -0.70771787809898   -2.16673706968600   -0.46876501096388
O          -2.09484016023674   -2.13680956843259    0.13185856496544
H          -2.49522623783383   -1.33532171247495   -0.28913284950444
H          -1.93413561037110   -1.89956124899758    1.05004337598461
O           1.57342881695136    2.39374219991560   -0.30786671047821
H           0.88299846294740    1.83312280686403   -0.70067165441120
H           2.38374111529109    2.15590333517904   -0.76602805724981
O          -2.69491589950952    0.15688380830079   -1.02119554132169
H          -3.03574905028713    0.21251693368262   -1.91590911490972
H          -1.74314229055400    0.38123610351570   -1.07322515026939
O           1.78033522098839    1.12997221826336    2.02514865069412
H           2.59340515250602    0.64613954240497    1.84972036707481
H           1.69956147039813    1.78258073168369    1.28765607688155
H           0.70532030870596    0.11026062789948    1.62499647121204
