    19
        -40.92079107
S          -0.40258204650960   -0.92020343333195    1.09498739142029
O          -1.17891053152900    0.18095074150890    0.54200685110310
O          -0.71776206041244   -2.20749014802405    0.53115729206321
O           1.03114298291966   -0.62581014144616    1.05620140468882
O          -0.79482742620394   -0.97053058529251    2.62739328951664
H          -0.38033310678330   -1.77069510120168    2.93462993197274
O          -0.18342369555951    0.57098097344939   -1.90024329043653
H           0.06125089788567   -0.35697226839642   -2.12702302994976
H          -0.80793028401169    0.47217845350362   -1.15326254590612
O          -0.23867148464464    2.58074880897587    1.02922347538664
H          -0.83426154754904    3.22155669368005    0.63569006663511
H          -0.70875786098513    1.71378042767670    1.01430649338297
O           0.29315021188811   -2.02108045680545   -1.90321615867017
H          -0.02515703853870   -2.17726776053017   -0.98761126661833
H          -0.12880949696588   -2.68662855715843   -2.44988231113978
O           1.56823727209543    1.36415820329032   -0.31452556503638
H           1.01869747615828    2.03512574801116    0.21288226589677
H           1.49376489002184    0.50194950796339    0.28698494446019
H           0.93518282871886    1.09524887413176   -1.12969922875407
