    19
        -40.92079073
S          -0.73560226969859   -1.28724862778168    0.10361127093170
O           0.03322712799165   -2.20511303879622    0.90386360940970
O          -1.31413373154489   -0.19992254161984    0.89564392313807
O          -0.02742246675041   -0.76978747403149   -1.05897671634117
O          -1.96284120195414   -2.09258643779414   -0.48797693874643
H          -2.34239138613842   -2.51023020377985    0.27889106857325
O           1.74187838626522    0.96569652000855   -0.07748210556401
H           1.32898215769349    0.25754031196313   -0.61215736523521
H           1.94147359229204    0.52532778355235    0.78197028743160
O           1.81280201588188   -0.61092391795044    2.03323740461157
H           1.12678705101684   -1.23483489291060    1.71055684312743
H           2.54977138800225   -1.15163231511247    2.32377786103236
O          -1.09632951443432    1.34702410514044   -2.17991605893591
H          -0.80288556118445    0.44730305846891   -1.90200426061316
H          -0.56079555891280    1.58705446128389   -2.93875482256393
O          -0.49205375968216    2.03222199583633    0.21114015051232
H          -0.91982654078253    1.15737539829278    0.61442434017254
H           0.53338364133664    1.74436413813675    0.15093750845379
H          -0.81402337807700    1.99837166712572   -0.75078599950590
