    19
        -40.92246918
S          -0.93397781591130    0.18466261662189    0.48955466225069
O          -0.02876004457758   -0.06992413535569    1.56919163740793
O          -0.94157476728126    1.54445741686384    0.00240939689554
O          -0.65927436991120   -0.75970274055212   -0.67762449110059
O          -2.36243953902344   -0.21540420175886    0.91874313813250
H          -2.92499614121320    0.04589363984158    0.14723804300187
O           2.09824264188072   -1.70471696372227    1.39587147796703
H           1.36232480550978   -1.10975825853276    1.63531537947824
H           1.85745329402874   -2.57668170255044    1.71313618954408
O           1.75232446103027    1.66902113090576   -0.12484139801572
H           0.79569166047863    1.84431743156105   -0.13379045220514
H           2.00203169092662    1.61773981445460    0.80125283161311
O          -3.10403049405028    0.74132929079459   -1.38271404697237
H          -2.71916769637284    0.15316497264563   -2.03853737842922
H          -2.41576351334515    1.38694990556044   -1.15359930627420
O           1.77173384858808   -0.80277083061243   -1.07460548644534
H           2.08261739422557   -1.27271468621316   -0.26451453882288
H           0.41134420402382   -0.82786961950915   -0.92296705743431
H           1.95622037844309    0.15200690996988   -0.89951858980475
