    19
        -40.90789704
S          -1.72262285563041   -0.46711575603685   -0.71458395968620
O          -0.97382005469321   -0.01058823348514   -1.97477739524788
O          -1.25924548397005   -1.76559449565572   -0.32012824190135
O          -1.72631120130749    0.53871844346554    0.29319009100296
O          -3.17824047270057   -0.61514743684474   -1.26943849401726
H          -3.19596610629074   -1.41810184711847   -1.78611778259336
O           1.84531041104216    2.30863571956161    0.68812034821703
H           1.35438679490229    1.78117623899918    1.33125822255152
H           1.77402699770267    1.83287607190294   -0.14448198447412
O           0.14769551358856    0.57446562004297    2.22825682273814
H          -0.58154775298508    0.64191029628231    1.58372230991104
H          -0.17843466272625    0.93639570902857    3.05382225172261
O           1.23641054034058   -1.42016209859936    0.69069582898349
H           1.06266298210726   -0.83002474538911    1.44204699514914
H           0.37273668780625   -1.79138717616576    0.44340325486667
O           1.45102710777715    0.18076594406134   -1.31157168146811
H           1.48909636753680   -0.44260574355635   -0.51582577945101
H           2.06472096443949   -0.16445017528506   -1.96397745046263
H           0.01811421268595    0.13023366514399   -1.75361335571975
