    19
        -40.91624624
S           0.06208476285082   -0.87149688298831    0.28785354645128
O           1.12819447611298   -0.81659043075849   -0.68171638125280
O           0.06644763337957    0.44108191389789    1.09355933087470
O          -1.24372883322440   -1.11973205875335   -0.23370012170373
O           0.38129445907706   -1.93953309960704    1.35371618100606
H           1.36753664830107   -1.94208450276763    1.46960895595208
O          -1.60137784594443    1.25480982360634   -1.81711079782035
H          -2.22949844663530    1.43902886581310   -1.09268918278127
H          -1.52705201309857    0.29390180578682   -1.82748378782827
O           2.94228952638828   -1.73294265350560    1.00888420331083
H           3.41061022549328   -2.52373396131603    0.72991368122003
H           2.58943220034682   -1.30910300398383    0.20425988336530
O          -2.80530288069090    0.99487063843749    0.61161889129471
H          -2.49148935238074    0.09382414022220    0.44013335896381
H          -2.25536879852824    1.33464254453106    1.32137725557630
O           0.69650464623166    1.96648838596652   -0.78564019705885
H          -0.16071802601211    1.87826430036500   -1.28595078219111
H           0.35473948385406    1.18577287438926    0.42731958276173
H           1.31540214478898    1.37253129069430   -1.22395360021073
