    19
        -40.92246927
S          -0.34972446700864   -0.59546402881106    0.81771536896263
O          -1.56663098806731   -0.89612715434922    0.10011175386755
O           0.84466590164231   -0.86768593916028   -0.09326308464101
O          -0.27675323141204    0.72535937642140    1.36517732475293
O          -0.15244791299817   -1.62711431643928    1.94963555404715
H          -0.27821465276734   -2.50054904409650    1.50068438483330
O          -1.47715810060789    1.40440324707560   -1.31078169917953
H          -1.71133030745607    0.55195656039456   -0.90545803060830
H          -1.60974513595509    2.06629477337485   -0.62750843897399
O          -0.63363342660190   -3.41923610615210    0.12822072099355
H           0.10850875127954   -3.37023208217901   -0.48087300356803
H          -1.26372060380473   -2.73422469923081   -0.14895461417796
O           1.49591009349562    2.58692306054943    0.57619685320951
H           2.25790655351052    2.57024619419711    1.15764271275280
H           0.81503824804951    2.02700666504248    0.99527769007504
O           1.13799026193488    1.07937161647098   -1.57489166540186
H           1.03679261699517   -0.04270300653668   -0.79376513423051
H           0.18298055708200    1.28148863935011   -1.72741209068181
H           1.43956591061447    1.76028614158359   -0.92775461023700
