    19
        -40.92315433
S           0.21479043512372   -0.87147923782834    1.44107420216780
O          -0.09146938935763    0.42025281622365    2.06119724800268
O          -0.79492677337658   -1.19678309826628    0.43187393342538
O           1.55043351159335   -0.95999630102449    0.91545535884585
O           0.07397035956090   -1.93286338041676    2.59592506712946
H          -0.66443603678455   -1.59903213502953    3.09583968334688
O           0.14396504953862   -0.92870950457834   -2.03889619391040
H           0.58876603102583   -1.70741998006499   -2.37646409193919
H          -0.17473350216959   -1.16596760771028   -1.13973994793124
O          -1.95687097418906    0.78174774503697   -0.90215284077703
H          -1.75600268659404    0.00123751872603   -0.34017492280387
H          -1.69831911762443    0.52091498230847   -1.79248377912791
O           1.74759020652365    0.90383408827403   -0.92099294824324
H           1.26821462525759    0.36120142404892   -1.58337374253080
H           1.94296848391027    0.26065820880895   -0.20211553169670
O          -0.10698249381876    2.10497366944582    0.23272181571338
H           0.74077101158052    1.73534591068671   -0.30368341233299
H          -0.92812064711218    1.74878192306838   -0.27447401318939
H          -0.09960809310671    1.52330295829193    1.10046412588591
