    19
        -40.90852593
S          -0.58711821987237    0.46321498311133    1.08424845733236
O          -1.80644502205240    0.07740449695922    0.25521029604085
O          -0.91499701558136    0.58183991709639    2.46490347661957
O           0.58015233816849   -0.25442663655259    0.68497758891748
O          -0.32388424817309    1.96280230674269    0.56105389465029
H          -0.83309586431122    2.56717471743930    1.09873417678481
O           2.84117404066979    0.24697289788851   -0.71640290524605
H           2.14542404711936    0.06825462463588   -0.06051123825235
H           3.37749778807808   -0.54585311392013   -0.76856256282296
O          -1.23221705072933   -2.04001091315403    1.84287704040675
H          -2.17755418812712   -2.08438191831658    1.67997486387872
H          -1.10046369186190   -1.37946364573886    2.52907603793915
O           0.65641538390228    1.13237238258282   -2.06723553140681
H           0.33025412918501    1.67754525573061   -1.34384246853626
H           1.56660338915366    0.89196234190808   -1.80903323475166
O          -0.72892239347525   -1.06127040097611   -1.67398924859266
H          -0.21055279950654   -0.27197056845227   -1.99825523271671
H          -0.11319626429567   -1.59500072855959   -1.15993552192845
H          -1.46907436927166   -0.43716598849391   -0.60328787827988
