    19
        -40.91833180
S          -1.29091693796000   -0.44530566526414    1.05580473887206
O          -0.69671079764211   -0.57203945801695    2.36320902550766
O          -1.09795359867700    0.84787633356880    0.42954280378478
O          -0.88261095125386   -1.53853762263471    0.15953334082055
O          -2.85488659872390   -0.61091640976786    1.24312287933721
H          -2.92598960488096   -1.34936110694003    1.84031423083777
O           1.38347386871488    0.87321926842499    1.65329051856812
H           0.73344717827294    0.26336639230993    2.06283461899269
H           0.84892434647416    1.62421606333744    1.37927853800982
O          -0.86654339091195    1.23820243680061   -2.12189514365693
H          -1.11291682661870    1.17107263732578   -1.16410144517110
H          -0.38660856205951    2.06287973949208   -2.22217979918131
O           2.46592272932144   -0.13241442526775   -0.50610249917182
H           2.09518065429370    0.27896588004928    0.32408165545734
H           3.05535292444196   -0.83049426755787   -0.21477577728410
O           0.43791681994006   -0.92165440600143   -1.81555219657383
H          -0.05077425572092   -0.07195987543551   -2.11329739970453
H           1.31105195197675   -0.61836289690059   -1.36023118282483
H          -0.16535891619940   -1.26875261815269   -0.99287689185565
