    19
        -40.90933633
S          -0.50304357781550   -0.73694953683580   -1.85602203414559
O          -1.19365234767384   -1.29376198353111   -2.96101829818966
O           0.90514270889149   -0.30439115918411   -2.22743951342875
O          -1.14251827524961    0.29029949746000   -1.08519319233745
O          -0.23267775214371   -1.94166359006061   -0.83466354592454
H          -0.15273531182472   -2.71419836474355   -1.38922143046062
O           1.25781410904426    1.21184452899635    1.57919923340229
H           0.33988496663247    1.39023288864713    1.82426543742128
H           1.35212498901375    0.25099149670259    1.72504956370358
O           0.53639648698512   -1.38523176262730    1.87004998850096
H           0.39807844545825   -1.75487821135064    0.99195764361981
H          -0.29389579849464   -0.94277599133098    2.09483242166562
O          -1.48962649956769    0.56980973420049    1.57137055791043
H          -1.40565197927142    0.46213042399781    0.60454168002604
H          -2.40935669016165    0.77872479765925    1.73996796257090
O           1.21985842659274    1.80080286052503   -0.95281452446665
H           1.36097394905358    1.59002116967828    0.01956620725494
H           1.12866732569670    0.58163175169367   -1.70002194519731
H           0.32421682494421    2.14736146021238   -1.01440622125931
