    19
        -40.91306177
S           0.87671265515263   -0.15914190229249   -1.13823234311523
O           0.15410035546785    1.02950748111325   -1.50269144766860
O           1.73822567255534   -0.71770534500004   -2.12230075795775
O           1.58999714007262    0.05102283657322    0.19416536803740
O          -0.19286913463792   -1.25850839909288   -0.72163025484717
H          -0.68185203949489   -1.42135495612327   -1.55711689207853
O          -0.80256212039081   -0.93711623718939   -3.24413233499567
H           0.10814449439376   -1.10868366976948   -3.51150563936543
H          -0.86121895645199    0.01680052095792   -3.11452899365548
O          -0.02262289119810   -1.44194583898578    2.06582641145940
H           0.90866115069354   -1.20113657590251    2.05802408523008
H          -0.24267779483821   -1.62618632000528    1.14291047914246
O          -1.39304085096385    0.83977618520390    2.44325319998239
H          -0.99717211996540   -0.05793126025512    2.37843071281458
H          -1.48463505703443    1.03217460235248    3.37794742394485
O           0.40929857509100    2.08568994410290    0.98171084247745
H          -0.32635990585978    1.73406228237240    1.54928600478641
H           1.17760408270394    0.93082635444787    0.62684692890112
H           0.04226673469899    2.20985028747731    0.09373721688714
