    19
        -40.91114882
S           0.38107829491025   -0.32951744233067   -0.41512761001407
O           1.18904393909289   -0.71817231008869    0.71847712615991
O           0.83893451609054    0.81277232888531   -1.12935556233091
O           0.23796054573267   -1.53203614937312   -1.37181788520728
O          -1.06846476932887   -0.15444420019240    0.08877282167537
H          -1.17812853860205    0.73187576328133    0.57944927791334
O          -1.08828808193688    0.44198174670124   -3.12979914336663
H          -0.40118349234853    0.81393458079806   -2.56609899871640
H          -0.86802537697175   -0.48544572525548   -3.23468299009300
O           1.58655039687173    1.90585608095288    1.36613214956189
H           1.80211586836602    2.20995220629041    0.47874430493352
H           1.67456858074990    0.94007625878099    1.33050535165606
O          -1.05060642556308    1.99557648776633    1.44324893112464
H          -0.06868813478699    2.12563844044086    1.47885712806409
H          -1.35233396684431    1.89707776857098    2.34948036438408
O          -0.14927706679502   -3.05588951908423    0.68240749018371
H          -1.01355744372407   -2.85809479445940    1.05288370675335
H           0.04915688192608   -2.31730914353500   -0.79109181239063
H           0.47914428318238   -2.42383238851044    1.06901536997831
