    19
        -40.92246926
S          -0.39929917494187   -0.44188173929557    0.88948284847444
O           0.73653177497745   -1.25839752784835    0.58472427123815
O          -0.10893229988713    0.75977009778450    1.63652534310225
O          -1.14950264362058   -0.06510916312482   -0.38525263022814
O          -1.44039998825153   -1.28536533725485    1.65732642560613
H          -2.15533143792895   -0.63755543092419    1.87928010012060
O           1.63754581244999   -1.71513702287294   -1.90673455259053
H           1.26809274615939   -2.53649385886157   -2.23519167769276
H           1.42679100361994   -1.67774135249214   -0.95442974667579
O           1.94754974756268    1.44118408504002    0.02567452915736
H           1.27760904712859    1.37462115364792    0.72759779001719
H           2.58137901637096    0.74071837976831    0.19914368809518
O          -2.78390734731865    0.93104721064500    1.86755676566277
H          -1.88325658392807    1.27689468838135    1.97846645746261
H          -3.05282177077373    1.15259342545072    0.97156787207847
O           0.50229798587402    0.67536552882283   -2.05651063820748
H          -0.47720816429361    0.28525824726838   -1.18255526079823
H           1.11125475273308    1.15585778772002   -1.44431248351676
H           0.96160751412563   -0.17562917201806   -2.25235909132224
