    19
        -40.91498381
S          -1.00987772733948   -1.11828021325133   -0.88529879842049
O          -1.02026817949799   -2.29140141525792   -0.07297497129619
O          -1.32326477342771    0.13249617773132   -0.25631419475111
O           0.28361917988045   -1.00869102936253   -1.66595065555306
O          -2.10351256491847   -1.31999643425541   -2.01091333295195
H          -2.10398937277240   -2.24421882697232   -2.25250539013076
O           1.07834248203057   -1.18539854974353    1.28986434282702
H           0.60780448629275   -0.74695485673383    2.00739231983968
H           0.45217392501927   -1.79926121881932    0.88712988126835
O          -0.44437145855536    1.19549176244679    2.07198954856978
H          -0.83797022800281    0.81453693274009    1.26600303476633
H          -1.13668199160539    1.69703484777236    2.50467198400637
O           1.93824847187463    1.32737743528198    0.63357096220014
H           1.25080789795829    1.58054528837177    1.26916215887464
H           2.00553432215354    0.36390228469370    0.74207023095924
O           0.70200489732809    1.42444673733644   -1.63468140080477
H           0.54297914134585    0.02868292223838   -1.74695431377503
H          -0.17899497118763    1.66552285877543   -1.32514854699482
H           1.29741647345894    1.48416529707278   -0.82111284861915
