    19
        -40.92218957
S          -0.60144396025077   -0.95035560426251    0.27369977065044
O          -1.29135147198298    0.27565762306095    0.66180176708214
O          -0.22663942732836   -0.91586543059951   -1.13628808182640
O           0.55913879617952   -1.20236957346302    1.12796531541856
O          -1.57404934635980   -2.14623795396831    0.49048368698469
H          -2.31967599335820   -1.91733802862898   -0.10266223129131
O          -2.95363947990954   -0.74406562170143   -1.25712099537130
H          -2.14601124783213   -0.76582724382840   -1.78739281748072
H          -2.82688875500600   -0.00710046477668   -0.64496538015405
O           2.02312399461515    0.28580927216940   -1.60257747007849
H           2.59814590320763   -0.36269145685023   -2.01456172895209
H           1.12911953057290   -0.14517049451222   -1.53068001015366
O           0.29597776218180    2.21802981951228    1.31795522011896
H          -0.38932673513158    1.55398298986199    1.03594053109797
H           0.08962172973877    2.44219939665197    2.22794153303884
O           2.20499842122041    0.62237319456139    0.89250250287614
H           1.59293809303245   -0.22383301533703    1.09077999385910
H           2.28315672825282    0.58279098507859   -0.13885184267647
H           1.55280545602587    1.40001161935480    1.09603022594401
