    19
        -40.92246924
S          -0.21487812939024   -0.31709411361875   -0.99955036602298
O          -0.26608337582569    1.10065085562470   -0.43641342538106
O           1.16523645342784   -0.69592216012455   -1.19505638637010
O          -0.98230565606243   -1.21155786788987   -0.18664252662692
O          -0.90357028104078   -0.16008870403469   -2.37284199199242
H          -0.28397484631904    0.41715318013040   -2.88568946421827
O           1.55617997931094   -1.18185434873487    1.43179881758830
H           1.62590494172468   -1.09059229712723    0.46602940671166
H           0.98819985955741   -1.94122054208045    1.58454248524301
O           1.16133099251272    1.28225552576978   -3.01862657218705
H           1.10599675872003    2.06815967748458   -2.46775385293132
H           1.60088024644414    0.60112979017760   -2.48392641750658
O          -2.02270434511001   -0.55669741156388    2.20391269210158
H          -1.74453068293343   -0.94345540680295    1.35192239270929
H          -2.93120990014713   -0.27265910817329    2.09021177616031
O           0.12835372579882    0.97687813393227    1.99236198823667
H          -0.70098298216820    0.53391358033321    2.29184740154786
H           0.80879135303863    0.26053986259597    1.98457318549947
H          -0.09063412155930    1.13046135411127    0.64930086738667
