    19
        -40.91371018
S           1.54810734332745    0.65907947412520   -0.35267811694757
O           2.00164737908428    0.12989514714806    0.89524246213274
O           1.21976602544188   -0.45189966398413   -1.33343659275999
O           0.48511859150113    1.62032762082604   -0.29741405305769
O           2.76194684608197    1.36772086012328   -1.05599022593264
H           3.52922899156666    0.83112641259327   -0.86984946318395
O          -1.94029887861827    0.80670166242796   -1.16567410994303
H          -2.51856252323102    1.56968109352383   -1.21890298359328
H          -1.05007418338774    1.14882320882348   -0.96610363903488
O          -1.88240588050984   -1.01398215001986    0.84835842890765
H          -1.43409500624556   -0.45265070300640    1.51660365458799
H          -2.11134556442937   -0.40821504587909    0.11708119672101
O          -0.32435406941155    0.72590076228398    2.18843309257139
H           0.55379872221150    0.32244312567474    2.17262216743778
H          -0.27964028529395    1.40580272526303    1.50503957432098
O          -0.02759785546014   -2.31787448132889   -0.30945233143578
H           0.70602024411760   -1.27913363374825   -0.87354756459148
H          -0.77901924404094   -1.86592661846836    0.22151955723384
H          -0.45824063274293   -2.79781980646501   -1.02185107338742
