    19
        -40.92117444
S           0.74543052283426   -0.63685865198994    0.33834210662894
O           1.82033735193464   -1.47926502833949    0.75515314765461
O           0.46239894979650    0.51597588304141    1.15426797060716
O           0.94862827495731   -0.22514088429389   -1.10474129538669
O          -0.57702783046177   -1.48181152948893    0.32326592704396
H          -0.30222878204029   -2.38797213634777    0.03204527701724
O           0.71405935910394   -3.66155028488041   -0.23015319741713
H           0.70038161110858   -4.38695104304661    0.39941201204742
H           1.43850394922963   -3.06659528540887    0.04145997464333
O          -2.10943184922984    0.91210947622140    0.42756821349615
H          -1.26804058543687    0.80398196905640    0.90490405818434
H          -2.48795715749857    0.03208603382058    0.37056595160409
O           0.67979827072048    3.08873119196181    0.25753935732735
H           0.77181524515786    2.23420384726024    0.71245460690329
H           0.16129032649990    3.64990925905376    0.83787015334084
O          -0.57524071281152    1.66461254423675   -1.62221563048462
H           0.30000895045755    0.57683286718625   -1.40442784761508
H          -1.33598796963203    1.46365283440409   -1.03015651573182
H          -0.08673792429579    2.38404892741502   -1.16315426968074
