    19
        -40.92135278
S          -0.31330911574047    0.67825589782959   -0.47798236917095
O          -0.99191134591550   -0.62453966052927   -0.62908854304521
O          -0.56743980797724    1.24153072513491    0.84451115095847
O           1.09989499253620    0.55067991129297   -0.76180648003421
O          -0.92764969734526    1.63256831912876   -1.53795586117816
H          -1.79960068465326    1.89455648809484   -1.16331989326234
O           2.15968647124088   -1.79447865291917   -1.22187501718316
H           1.98557838247890   -2.03956270307775   -2.13265984457094
H           1.89550865950467   -0.84549444681569   -1.13539240585428
O           1.15622258808314   -0.36247590741517    2.02196920661806
H           0.47929562217884    0.30017620067374    1.75582027261322
H           1.98186173453355   -0.04238616833931    1.64697661595053
O          -2.88458252556537    2.24633891289751    0.09687429202484
H          -2.96929521138565    3.16940623012634    0.34738632021185
H          -2.18464071981864    1.86600086474680    0.66305169953848
O           0.37735895557328   -2.28073958553225    0.53247192843914
H          -0.34733882643495   -1.62416734694991    0.01432813072240
H           1.14411301314029   -2.30553385474459   -0.14147565068166
H           0.70624752556749   -1.66013524359681    1.27816644790570
