    19
        -40.92453850
S          -0.16910098355435    1.51082429289505   -0.10819812362203
O           1.15233480305121    1.18962538652224   -0.63500310086042
O          -1.21355246203130    0.89102189010363   -0.91648945173890
O          -0.29651889151606    1.19678736369634    1.29942931591286
O          -0.35328797145909    3.07426356156485   -0.23602249228429
H          -0.26295174382143    3.25769140124259   -1.16667866956655
O           0.22137158824342   -2.14250635407564    0.29156169791051
H           0.22774569712006   -1.82699594888421   -0.70510693226552
H           0.97310293030675   -1.57200124457929    0.74492558899473
O           1.86678328136965   -0.47827610031148    1.22774069986841
H           1.78844011208984    0.18561811029773    0.49789026597693
H           1.43401719921446   -0.04661841724467    1.97349408851576
O           0.19199203608748   -1.01866781039825   -1.96312115889929
H           1.02860331994591   -0.54333137743946   -2.02816173893529
H          -0.45786688427739   -0.31280498924715   -1.71486680371751
O          -1.81825070704412   -0.89770841474016    1.09400074915898
H          -2.29792683609188   -0.62740427949244    0.30194253423434
H          -0.67481888400963   -1.76349618885632    0.67720260456805
H          -1.34011560364964   -0.07602087104179    1.36546093674198
