    19
        -40.92021796
S           0.38484506940424   -0.89596348576059   -0.41277321784484
O           1.26993624874504    0.23116684599546   -0.64890218316119
O          -0.06144774511038   -0.88674946399314    1.03747841432541
O          -0.73644250298467   -0.97744742496246   -1.29428941151133
O           1.21158653227778   -2.19580084639380   -0.52654662241485
H           2.08716989903197   -1.99266991552528   -0.11281964123962
O          -0.05309502153939    2.48178072520109   -0.01361886208740
H           0.45941068503834    1.73331891109523   -0.37442540781294
H           0.57663959261745    3.06672152499447    0.41215719889026
O          -3.18023761473163   -0.07088160479518   -0.64455170780084
H          -3.72994383546950   -0.84721806642963   -0.52296555609379
H          -2.35599130320937   -0.38210529060650   -1.06490386698878
O           3.38467830184419   -1.02624182941093    0.30064703394309
H           4.12037293830897   -1.05092799914285   -0.31616643368704
H           2.80640497281053   -0.28949049446635    0.02539856115819
O          -1.72234340844127    0.91222547716330    1.33009113295962
H          -0.80646291274782   -0.11108407969417    1.24072833642103
H          -1.23523099637070    1.65540756315565    0.90416605327240
H          -2.41984889917880    0.64595943724075    0.68129616855685
