    19
        -40.92085569
S          -0.37715392988142    0.83356533824593    0.55418129680522
O           0.89033463928690    0.88080062600644   -0.34321090012029
O          -0.91885372481772   -0.50384640468400    0.46298389306209
O          -0.08462051253743    1.26487011742679    1.88270448980676
O          -1.29605428709559    1.83982448361667   -0.12816102167649
H          -1.22782888959932    1.69923283365677   -1.14257436247541
O           1.71896245358028   -0.40253654881349    2.96181424004799
H           1.11417427915380    0.31769647078645    2.70031458372345
H           1.33545592101779   -0.80678962889060    3.74245544045364
O          -0.92858255786885    1.28594539093585   -2.57124019906457
H           0.02983559349856    1.33865037274996   -2.63054288482852
H          -1.15367242185850    0.32271909723622   -2.55525579541223
O          -1.47189328539097   -1.23618529996736   -2.01859919786387
H          -1.28798287768018   -1.08182984577336   -1.06733730668429
H          -2.37335279355480   -1.55898632251055   -2.07231256546644
O           1.77237670102952   -1.34815913244332    0.47147717022586
H           0.89689481050675   -1.75191160445028    0.46421434979194
H           1.40410126611207    0.03010570764058   -0.12159538846749
H           1.95785965146062   -1.12316566055132    1.41068415684764
