    19
        -40.91463207
S           0.62513676760781    0.84034053953802   -1.40919524584933
O          -0.01546496511129    0.38266322432360   -2.60012194828697
O          -0.13978059145954    1.58583790301007   -0.46111690654171
O           1.30278302587493   -0.33709154915539   -0.71291762748379
O           1.83442549893211    1.75836442319506   -1.84530356954077
H           2.12519840707273    1.47313205953490   -2.70918489409421
O          -2.07505355141733   -0.01286052553232    0.73490026366788
H          -1.61804821331967    0.75601055635390    0.36666250238642
H          -1.99416461195755   -0.70510589144377    0.05418159545565
O          -0.48211165425661   -0.74794172289119    2.70186720027228
H          -0.50298334681386   -1.70549908075074    2.72692114695136
H          -1.18891758334831   -0.46698308663573    2.06429359865353
O          -1.20449833208366   -1.66526633142818   -1.26520802758018
H          -0.39006046292154   -2.12835109699595   -1.05611395302884
H          -0.96930637730412   -1.01187466562143   -1.94102957076880
O           1.45037578454393    0.57284909614969    1.57383996262875
H           1.45586535364856   -0.02191748816657    0.30138796538926
H           0.99051230115855    1.39527042249885    1.36154849454522
H           0.79609253052926    0.03842321444964    2.11458901298247
