    19
        -40.91889847
S          -1.03289103401312   -0.10354855945768   -1.07918108419562
O          -2.09956226327386    0.82333730707960   -0.76193131261133
O           0.26994587028404    0.59373904233206   -1.13627770787795
O          -0.95935402161829   -1.25650810910882   -0.22210180645909
O          -1.30514884868350   -0.60915736359412   -2.55148964750268
H          -1.72653743353918    0.13906739382003   -2.96359189879314
O           2.34259807346234   -1.10644615479583   -0.96652206796154
H           1.58555784635334   -0.52977393805544   -1.19110523997414
H           3.13054092142128   -0.65688809086793   -1.27527826423115
O           1.10405315450703   -1.50159415628656    1.35870547727786
H           1.77169876219681   -1.59802302102407    0.64577405329194
H           0.24752087133133   -1.65382118654781    0.88991189674280
O          -1.67566242883516    1.31755778140102    1.75564674478063
H          -2.03272257460210    2.18853924207815    1.94237204676744
H          -1.96370183953220    1.08891432847175    0.83600416879904
O           0.80251651715857    0.94237576934281    1.30220625489077
H           0.67709279581557    0.94381579134366    0.28483298924293
H          -0.13725560003934    1.12724207685186    1.65268030878501
H           1.00131123161851   -0.14882816298408    1.47934509906398
