    19
        -40.92136406
S           0.01808179745077   -1.38458955965270    0.07480684937102
O          -0.56404839906384   -2.08973430222532    1.18960893635635
O          -0.99327478690277   -0.67166334259623   -0.72563362213925
O           1.10672361945856   -0.50284119965043    0.43100326553478
O           0.62157163134106   -2.47850131907305   -0.90511134330907
H           0.07679796960487   -3.24704409100046   -0.76102501257169
O          -0.68667800309732    0.16032981517335    2.55588079867983
H           0.24199062715673    0.28544612153341    2.77023369461054
H          -0.74670765703032   -0.75067409300478    2.18847903390038
O           0.99681195200619    2.00686524163851   -0.31457159609549
H           0.92697692050654    1.80692314756465   -1.27422975057466
H           1.31073319538907    1.15165420325325    0.05875864858500
O           0.59741224339327    0.54996812335955   -2.50964298806386
H           1.29895927019203   -0.06879823613639   -2.71953161641593
H          -0.06646978233742    0.04399148698394   -2.00415199186323
O          -1.29759279277431    1.50872109183777    0.47714669077673
H          -1.36759312020760    0.65790939464499   -0.09402570939071
H          -1.14418735045217    1.12136065586832    1.41244835992368
H          -0.32950731447871    1.90067687163877    0.14955733282610
