    19
        -40.90753631
S          -0.92535534432627    0.10581265423251   -0.49117241755574
O          -1.04181607711621   -1.31411928713586   -0.30357761295999
O          -0.79468180574595    0.84127577088641    0.73820735260622
O           0.23755606122705    0.41645627413112   -1.43689829122011
O          -2.13132299682787    0.65044638396191   -1.30109212610547
H          -2.92101373117387    0.45896344226876   -0.74956041546229
O           1.65189792407096   -0.04876129698433    1.40706725693987
H           1.95636759459066    0.18550918677817    2.28674512475194
H           0.76388415493937    0.34155902775777    1.30243495952915
O           2.67926302035251    1.86108837478228   -0.50204818331694
H           2.49772427030996    1.20946377391891    0.18581646525553
H           1.94504323998105    1.80667135180374   -1.11793083298208
O          -3.41051026172442   -0.29698573435478    0.78006265735356
H          -2.92600152719618   -1.12509602530410    0.67985541923819
H          -2.92804750496901    0.22279663214047    1.43105185682979
O           1.63166710182701   -1.60140482015742   -0.86366581068551
H           0.82807240650600   -2.09310284512867   -0.64364041253869
H           0.91045525315521   -0.36600687799196   -1.37754183955832
H           1.97681823231948   -1.25456595598160   -0.02411314030994
