    19
        -40.92161565
S          -0.97072968779946    0.04078049270726   -0.43914396760365
O          -0.70860049021391    1.36819420741420   -0.94563638225131
O           0.16220718962497   -0.88508121644980   -0.88125586427286
O          -1.17515199395896   -0.03725308093540    0.97571471932403
O          -2.19541406800922   -0.55268568787859   -1.16577132443794
H          -2.00123311132489   -0.40814569331574   -2.12630401906608
O          -1.01739414643584    0.19970180861917   -3.35712298039913
H          -0.78467274650995    0.95052808182211   -2.78747355183626
H          -0.23132423975559   -0.35039656238505   -3.41903718577919
O           1.03301924749470    1.86764792265388    1.05946899656179
H           0.47479603569185    1.92684348185089    0.26592282907034
H           0.42010520712694    1.81623418821864    1.79717156811464
O           0.41347942122992   -1.48632002214941    2.60516870413908
H           0.19071914387158   -1.36442207220342    3.52938572877114
H          -0.28906497521012   -1.05378841378012    2.08579050187848
O           2.04436775361056   -0.57072804401269    0.69391474363397
H           1.69438493143571   -1.04234671237294    1.47821781215315
H           1.03387154717336   -0.80774737460822   -0.24409123751397
H           1.90663499196461    0.38898468680989    0.87508090952618
