    19
        -40.90976905
S          -1.14174702702370    0.92655927969779    1.29243929144870
O           0.16818580575647    1.53937760323071    1.41647439648058
O          -1.73950811043984    1.15395501540130   -0.01053959402823
O          -1.12008137576625   -0.49385034654073    1.64615633559255
O          -2.07855669478996    1.60841395946204    2.36257069623179
H          -2.05964336648520    2.52783578714436    2.11412888268874
O           1.82559610864236   -0.63863986475405   -2.29617996843142
H           2.15259487765343   -0.09323845719683   -1.57439894203814
H           0.92785154456552   -0.34646563855791   -2.48089460142593
O           2.06510511178359    0.07191748786894    0.47759249968200
H           2.72793344122760   -0.02586141741870    1.16364109959661
H           1.39287398399028    0.72048657505639    0.82633180002796
O          -1.00099545633781   -0.55342713911669   -1.79147019514449
H          -1.31004343729222    0.17106480986729   -1.18002775538973
H          -1.79105898896371   -0.94268694304482   -2.17074407794221
O           0.30315430314958   -1.72843212713370    0.06204880570172
H          -0.13784003569764   -1.42595208592290   -0.81040967696785
H           1.15194702488150   -1.16288942527783    0.14337689711503
H          -0.33576770887908   -1.30816707279635    0.80990410668541
