    19
        -40.91329960
S           0.65398118391099    1.56758290650002   -0.12946827257821
O           1.19208823180393    0.54020651956834   -0.97757261413681
O          -0.44972266903557    2.30708489423393   -0.87001845413085
O           0.25470316528448    1.15268756636145    1.17735278312792
O           1.74093500899574    2.68342065531461    0.05544930132946
H           2.09129398703300    2.91471801395854   -0.80329553654742
O           1.73128327825505   -1.18828178665838    1.06570155542483
H           1.79877850823977   -0.81102326877466    0.17697135567367
H           1.33383675679282   -0.48190983560833    1.59007267684809
O          -1.88620658387586   -0.52379216922340    0.54749087736194
H          -1.28597777077510    0.07887165963961    1.00782052341042
H          -1.46857464098838   -1.41276116045028    0.59483190549279
O          -0.41555234482947   -2.76429038996933    0.68882755636566
H           0.44898992792018   -2.31564101395533    0.82110270366367
H          -0.51247791738464   -3.38908907884292    1.40885831131218
O          -1.56112072088958    0.33309051226507   -1.86040272581650
H          -1.86045029456643   -0.06963081357271   -0.98614149424398
H          -1.01456027618270    1.55438703195709   -1.37012799824966
H          -0.79124681982860   -0.17563027268098   -2.13745246419222
