    19
        -40.92136392
S           1.09907463587699   -0.28682463458847   -0.79554048804779
O           0.84453870065940   -0.82346596667907    0.52247022421142
O           1.02991929381983   -1.26071560207341   -1.85658246667075
O           0.24730475229018    0.88678295022983   -1.05731444294054
O           2.58293087387124    0.27779125933560   -0.77656808659793
H           2.87468842681742    0.19974337542961   -1.68050872071351
O           0.61816731037716    2.25456915243589    1.22242927387444
H           1.53932169953198    2.14201250123066    1.46290652100687
H           0.53194587856751    1.90879024747642    0.31392875302510
O          -1.24895679893069   -2.16315991635990   -0.89042282209734
H          -0.93553619006086   -2.63096056077242   -0.11128553678857
H          -0.43788094123274   -1.93861571499309   -1.40078371801112
O          -1.00490455399000    0.29203991242877    2.00509058231564
H          -0.26774923797076   -0.28493969119333    1.69960284719816
H          -0.59266087023071    1.18415870900726    1.99828430886784
O          -2.02249114331902    0.18267070954124   -0.25101117643426
H          -1.74070695413309    0.25066712491968    0.80510165567681
H          -1.20454854397064    0.61145042611133   -0.69949132700664
H          -1.91245634057077   -0.80199427829132   -0.51030539327009
