    19
        -40.92045017
S           0.28388982608271    0.13072657682331   -1.56817406815227
O          -0.69921715308479   -0.93417009709464   -1.62911116052568
O          -0.24160722297345    1.31549138346793   -0.89443192815997
O           1.54724903114065   -0.28948855492368   -0.98683031060509
O           0.58345082863471    0.54119306943714   -3.06747542293806
H          -0.23100904179673    0.33669702754286   -3.51708988096832
O           1.53525305125653    1.10736824160687    1.18223839965298
H           1.03774291020150    1.84851254536159    0.81648476068349
H           1.75711710800490    0.57450620071562    0.37549697264419
O          -2.05562083798804    0.73103038698717    0.84255250547486
H          -2.43983957793835    1.55796489239297    1.13998026180526
H          -1.46379146335993    0.94943322276987    0.07293057247266
O           0.24380193116314   -2.25182326602189    0.38679727674039
H          -0.27609966214127   -1.91116499514186   -0.38602223740198
H           1.15843315774985   -2.09656367198087    0.11771613177308
O          -0.20828791441519   -0.46913962336141    2.09084778840818
H           0.56590170701760    0.19586218625114    1.84596028191646
H          -1.05530630111667   -0.02776167434320    1.71080703411927
H          -0.04206039643623   -1.30867386049233    1.46732302306191
