    19
        -40.91892669
S           0.45705636320772    1.09901384991145    0.80073054263498
O          -0.98529556344209    0.89393591915217    0.57014373315573
O           0.87131879647376    0.54243181775041    2.07055542078575
O           1.22916315127035    0.65410624113686   -0.33281578470344
O           0.64746352993279    2.66599002531695    0.89631998312241
H           0.35839466582040    2.88869395272364    1.77639239330624
O           0.57770773536702   -2.01235057858573    1.70037516204107
H           0.34975891993959   -2.40694497358202    2.54500735978238
H           0.81010622336412   -1.06690478049869    1.88763724893256
O           0.19636898582731   -1.15053674364254   -2.13504515703052
H           0.99175026955879   -0.82940862450499   -1.68150645724751
H          -0.21209243713729   -0.32545573365160   -2.48279709060556
O          -0.59240214538657    1.40133112140948   -2.18005528043699
H           0.19359071869206    1.42044295506625   -1.60863158418224
H          -1.33207566969540    1.54460024168870   -1.58243636142102
O          -1.17112643095306   -1.49541198620292   -0.06955071764155
H          -0.51638436972428   -1.87280120736370    0.62058311424397
H          -1.22771750761929   -0.48056967663774    0.20205700479820
H          -0.64558523551911   -1.47016180946224   -0.99696351954691
