    19
        -40.90098074
S           1.82164458277447   -0.86814930132610    0.27124830434882
O           1.98299678180977   -1.50299151882651   -0.98818573827960
O           2.48316477990878    0.38079696274375    0.50215128532631
O           0.31985142128547   -0.72052763940317    0.59629795183738
O           2.27467155087769   -1.86261006805259    1.40224605947093
H           2.36082006071832   -1.36015153613015    2.21081227813844
O          -2.59378751401917   -1.17685131960101   -0.54340545955237
H          -2.58049688877030   -0.25374495440545   -0.21720010482301
H          -2.32758565917151   -1.71671714455220    0.20308882256990
O          -1.94654677602167    1.39964135974645    0.05652872479294
H          -1.73901582885727    1.65170117990444   -0.84650251680029
H          -1.15062479706429    1.61485042238806    0.57196805148938
O           0.54081372713814    2.20367189479288    1.01312468682368
H           0.87691007065811    3.07797795293893    0.80764657799784
H           1.27472611657983    1.58475662734407    0.85914070020619
O          -0.42731836422949   -0.31166415619995   -1.78978762020981
H          -0.09600528906838   -0.43457084423695   -0.28969579430961
H           0.21716271905571   -0.93509966085372   -2.14229626863659
H          -1.29138070373838   -0.77031826631089   -1.67717995053883
