    19
        -40.92343668
S           1.51980450885391   -0.10268683289580   -0.72464635594479
O           0.63490861704806   -1.23806335316102   -0.51694217993975
O           0.93160179691462    0.91216017116683   -1.57256481539832
O           1.99398077688935    0.45302345660118    0.54368693885230
O           2.79259798742317   -0.66448857521866   -1.46386093730462
H           3.33893105153683    0.10964700819126   -1.55753770195201
O          -1.94810834751103   -0.75865486116157   -0.89979593967024
H          -0.99522484834769   -0.99886799754688   -0.89263646460982
H          -2.25679267682153   -0.91308416054052   -1.79362006711528
O          -0.80725269105349   -1.40761072907748    1.72188967334679
H          -1.67024308702955   -1.45345949776695    1.29570037853218
H          -0.16083100451307   -1.58509066109909    1.00720006524811
O          -1.16260394288532    1.72145809835581   -0.22984793570999
H          -0.38315296791801    1.63158608161989   -0.82849521468471
H          -1.71872713684877    0.94629044973558   -0.45431654819819
O          -0.02877116786686    1.01108181527235    1.87239769491338
H          -0.40011538850893    0.06110705578884    1.99826819251321
H           0.90594976264048    0.84582510602395    1.43344345373132
H          -0.58595125195410    1.42982743554187    1.06167775350741
