    19
        -40.91966047
S           1.20581598935687    0.42469275196558   -1.13901966376733
O           1.63425123189583    1.21448042286645    0.00493304275858
O           1.54840716541847   -0.99358965942184   -0.95056647131881
O          -0.18884252755242    0.59860367706948   -1.46082390674646
O           2.04509372470091    0.91088545219542   -2.37887573958590
H           2.94421437509672    0.77455903856596   -2.09596731778439
O           0.33686197344857    0.33048438481166    2.02865472178374
H           0.89444571956130    0.35622540755728    2.80853221550375
H           0.86640416801855    0.75058006290170    1.29002534604017
O          -1.92328037174031    1.27175011552528    0.57135552756037
H          -1.34849292731195    1.19217419741969    1.34122494005890
H          -1.32963788595254    1.38968665913285   -0.18848279593554
O          -2.13545522470085   -1.09292253283986   -0.58355310150674
H          -2.38014780101664   -0.28982929081484   -0.06178044164346
H          -1.66202861424865   -0.71720620552790   -1.34364399743936
O          -0.10957030521688   -1.82182375671566    0.67773860910890
H          -0.00280297303310   -1.08072931456606    1.35612776913100
H          -1.03444123245428   -1.62561692841606    0.16682761485821
H           0.63920551573994   -1.59240449169788   -0.04270633107722
