    19
        -40.92071390
S          -0.91264638063321    1.00350275725664   -0.59786186524991
O          -2.32597718174666    0.83191510345054   -0.35191620158681
O          -0.15957204343390    1.18184647888561    0.65962005953297
O          -0.32192346437703   -0.04375956752570   -1.39857504741012
O          -0.74695361826031    2.36030109626170   -1.39028395063682
H          -1.45624911545714    2.90525008310595   -1.06135859056537
O           2.50260966925933    1.03693557878841    0.36300449453100
H           1.55080985280281    1.24974069282804    0.43345757038143
H           2.92911978083885    1.43179785251046    1.12499543130281
O          -2.05280854934572   -1.72703040127444    0.12647937975411
H          -2.34923181721780   -0.79639310554397   -0.01186474377563
H          -1.78820184721239   -2.03643972100914   -0.74486656026365
O           1.70584007858891   -1.38695616765208   -0.40476153702025
H           2.30452771022600   -0.64107540916778   -0.18875942021980
H           1.05580143539878   -0.98802607376942   -1.02823076455668
O           0.06054991390687   -1.20248919225145    1.43507238265953
H          -0.81079357037753   -1.56374125118825    1.02101294876483
H           0.84995883022992   -1.42709946514774    0.70452527080463
H          -0.03485968879185   -0.18827932938635    1.31031113566510
