    19
        -40.91373477
S           1.34946857626786    0.83746760404683   -0.50914208325149
O           2.47751689969942   -0.04926447115029   -0.00436381412536
O           0.59266348960382    0.16820352256873   -1.53324037025057
O           0.59810285007147    1.37880170819521    0.57510420527755
O           2.12870255361275    2.01470529986971   -1.19665464414350
H           2.55783597550400    1.67563488477584   -1.98064724931020
O          -0.33273756239075   -1.87600807463853    0.12416880769049
H          -1.24930167348319   -1.59050082898831    0.33723574814446
H          -0.05598142881090   -1.34312598178832   -0.63317192849683
O          -2.75387327386607   -0.78231894890146    0.51226342878239
H          -2.53794972014950    0.06731046895513    0.06856409347245
H          -3.52950830127467   -1.13201154071213    0.07112749440157
O          -1.78422378521589    1.36437076123011   -0.79269585222360
H          -1.16953431210224    0.91658155712474   -1.38945327690996
H          -1.21749044892779    1.72178771931620   -0.09693437117259
O           1.31189139159135   -1.04448021329480    1.93614782897657
H           0.64712083369126   -1.53297050683505    1.36361268526678
H           2.11542197740375   -0.52711311311758    0.87624516963032
H           0.85187594879809   -0.26706986663972    2.27183413823013
