    19
        -40.92022159
S          -0.66000387426119    0.04682411688842   -0.64743499325347
O           0.71289138620559   -0.39420115105986   -0.73284849106792
O          -1.61269025700987   -1.11087967711279   -0.96424179698806
O          -1.00299409868526    0.60416855830272    0.63564794047730
O          -0.93981916980515    1.03583226144569   -1.77869989403422
H          -0.07104861908999    1.55038825012247   -1.96336253199672
O           0.75945085135827   -2.25878794407936    1.19593663916506
H           1.12018896459695   -3.06770637120427    0.82671656715539
H           0.87928388029498   -1.56791636583198    0.51629228916294
O           1.36308009052029    2.07626170024172   -1.88104126117625
H           1.82686488550549    1.23197052913490   -1.84519223096920
H           1.35124766658259    2.40768426386713   -0.95446312849310
O           1.03025684148978    2.36523747417211    0.75492581339243
H           1.67021818026028    1.96424250668032    1.34692072096689
H           0.21405399992643    1.84064098715200    0.84268099258747
O          -1.88623187667564   -1.93231406325957    1.41203008883307
H          -0.94554687983576   -2.19976770122519    1.51944920307021
H          -1.94529924000177   -1.04552758768128    1.78637774634927
H          -1.86390271123114   -1.54614977670363   -0.06969365316508
