    19
        -40.91396495
S           0.51724688688542   -0.35394797404314   -1.55358697635898
O          -0.20215673226475   -1.32517256595775   -0.69770690014169
O          -0.34397596768840    0.34992714934999   -2.45111033600126
O           1.38112417687409    0.47068757656438   -0.71788596600604
O           1.50203050860359   -1.23116920041339   -2.43828363448124
H           1.10753461693924   -1.27636904223922   -3.30484945654165
O          -0.35711684144972    1.90399165919325    0.83701703581316
H          -1.17817391971837    1.56611244594442    0.41902514167002
H           0.35751528368625    1.67002142450835    0.22264944507346
O          -2.22997764507125    0.46383234440682   -0.44320470869219
H          -2.17400583841282    0.79981223683681   -1.34438176564039
H          -1.71546318639101   -0.35792226815124   -0.46938554931666
O          -0.06012544057119    0.19703134361001    2.73535272051321
H          -0.93656834826238   -0.16965613146057    2.87401428727547
H          -0.17576671880213    0.98305479296279    2.10838319091668
O           1.34983181242995   -1.15713095355389    1.18814540919240
H           0.78991921340368   -0.64116409714381    1.94754849565288
H           0.63316605561525   -1.46567640969314    0.47799880684817
H           1.73496210433407   -0.42626231072767    0.61026074019347
