    19
        -40.92136392
S           0.24538919328754   -0.30103413527403   -1.33141937672971
O           0.14574841018931   -1.35924660108349   -0.31057610521113
O          -0.82094162285366   -0.37244929278516   -2.29938276221586
O           0.40234220658106    0.99624559526875   -0.71341392352660
O           1.59871452377350   -0.60209445808729   -2.10525575141852
H           1.33530441946546   -1.16828537658498   -2.82518285760935
O           0.39411778655777    1.15990264669746    1.90242137580986
H           1.15472690350045    0.55082009543707    2.02879008154656
H           0.46215082605804    1.39083817320621    0.94791176464349
O          -2.44773165627865    0.82087522837492   -0.60445142438769
H          -1.99935208303335    0.34596320361323   -1.34068039334840
H          -2.10613463453827    1.71883503722411   -0.63834608458745
O           2.20981949300805   -0.68553172953454    1.26872921442886
H           2.91144388844007   -0.38385741139287    0.68922260604184
H           1.53671570618139   -1.09004471791031    0.68960097796656
O          -1.44449675478321   -0.41964232028121    1.38666707324622
H          -0.85187246354679   -0.99289059746759    0.77392924168354
H          -0.71344259625298    0.29592604243095    1.77366279281039
H          -2.01250155576246    0.09567058795369    0.70777357105247
