    19
        -40.90688336
S          -1.44333603152549   -1.54610954015073   -0.38798902868088
O          -1.71203603358591   -1.27151504675112   -1.76421811224469
O           0.09558111280311   -1.57044501270610   -0.19486605834456
O          -2.05610141059253   -0.72427957190146    0.59646880549473
O          -1.81779181798047   -3.04196022965100   -0.08769530430683
H          -1.67561767870022   -3.54150857172356   -0.89004846387880
O           0.94921330698262    1.98315953600271    2.03734943141897
H           1.56046543953705    1.31771938687664    1.66229811661909
H           1.45314006186166    2.79132950680495    2.14287313460840
O           2.39169619637783    0.13973501842939    0.64427395126685
H           2.20381145376347    0.40822653525630   -0.26183778232137
H           1.93054332320573   -0.69375552219248    0.77750350925327
O          -0.91762888472600    1.73143897352955    0.11145809109545
H          -0.34364234798943    1.92004831875663    0.88600005693429
H          -1.51004928657454    1.01657706905151    0.39204164907924
O           0.53682915198648    0.47280410607650   -1.57871800622792
H           0.00127952506159    1.09498888874742   -0.97860383297958
H           0.39432381933542   -0.77142487121279   -0.78070027696655
H          -0.04067988917456    0.28497101746968   -2.32558988171381
