    19
        -40.92246918
S           0.90407276687039   -0.54643081351860   -0.16982004570091
O           0.57506435481289   -0.02188040177623   -1.46070360494814
O           1.63201079230761    0.35573986739818    0.69199502604462
O          -0.35245820751189   -1.02060371497644    0.55520387173036
O           1.70854123365225   -1.85336091117198   -0.34206722302283
H           1.94469425800156   -2.11176333999710    0.58394628524907
O          -0.04290110604612    2.41406785361003    0.19506289857623
H           0.11940042946316    2.58585899614748   -0.73593740570012
H           0.67814192977325    1.83090188542706    0.48820718316635
O          -1.93572854239139    0.42997652015120   -2.30845910454936
H          -0.97822083330157    0.29841189476922   -2.17184230145600
H          -2.24548364862139   -0.32569998509639   -2.81041020013978
O           1.93756793667230   -1.81744654972273    2.24793951424562
H           1.04840549546046   -1.95515706717462    2.58643917672144
H           2.01887531392955   -0.86722873588511    2.06470413254559
O          -2.07670364783045    0.72338913191049    0.32165812605126
H          -1.48641568659206    1.51160185019456    0.40400871120054
H          -2.27671355587454    0.65786362759421   -0.64243230193524
H          -1.17214927271929   -0.28824010789906    0.50250724188704
