    19
        -40.91912340
S          -0.83232734130881   -0.91217716755641    0.51044800880124
O          -1.73269736234538    0.19357002368717   -0.02714793207307
O          -1.56111441306318   -1.68229814279368    1.46700349555465
O          -0.19805769476846   -1.61377237308375   -0.56428353539703
O           0.31242865874075   -0.13605729960082    1.26239916256170
H          -0.08714054129780    0.11184191591420    2.13799557100497
O          -1.11699036008972    0.04160330452760    3.40280248416271
H          -1.60383075752023   -0.64219232808597    2.90340678574187
H          -0.80349388724564   -0.37320050368750    4.21046919818101
O           1.88381714604978    1.38796277041401   -0.55597503739813
H           2.10558163427776    0.73652774361187   -1.23626685213530
H           1.60039288249866    0.88597221880211    0.21780725077490
O           1.26013987764138   -0.55941973597474   -2.51081751246384
H           1.54337053862625   -1.22285530321350   -3.14140964340531
H           0.76365991136822   -1.03661362109545   -1.81428927539438
O          -0.46990713844612    1.48274147062506   -1.77371426828474
H           0.35113824860431    1.75062495976629   -1.29542990894833
H          -0.15247223786705    0.83502285319041   -2.42127648022916
H          -1.26249718390615    0.75271922469381   -0.77172150099449
