    19
        -40.92135385
S          -1.10602960170877   -0.97567638650880    0.51036403390372
O           0.26361804482381   -0.96282245173362    0.99966089217407
O          -1.82783239083012    0.24336473810690    0.80237068775745
O          -1.16416261712558   -1.32121358800450   -0.91035525935292
O          -1.83196479704785   -2.14498122472527    1.28252825949014
H          -2.74078709121843   -2.04098812038526    1.01806121618350
O          -0.42799686946162    2.06504808755195   -0.45642453382219
H           0.27514915594521    2.10266390529578    0.23537806566716
H          -1.13871023710691    1.53655607677546   -0.02204480207250
O           1.07191716394731    1.51931818923059    1.64953814826394
H           0.85593728130933    0.57355533250820    1.53257793648238
H           0.66316516975538    1.78725749730073    2.47436559235344
O           2.15058327901923   -0.84728790301150   -0.85081400990951
H           2.37612106569887   -1.73293944289357   -1.14139384838478
H           1.56547671614757   -0.95008418419322   -0.06611122848998
O           0.26404711177297    0.34195232669534   -2.09199862918985
H           1.15014410423937   -0.02019133628695   -1.74594871288419
H          -0.40715322390971   -0.37484160776786   -1.75425152763578
H           0.00847773582620    1.20131008213548   -1.46550228052216
