    19
        -40.91793146
S          -1.70050888057307    0.00843737713569   -0.44179139033937
O          -0.90181503553023   -1.17063782323191   -0.17766044567404
O          -2.56964671627881    0.37914326530860    0.65123981098076
O          -0.85718007592023    1.13317026625799   -0.87798117058860
O          -2.61839749152767   -0.34191822444524   -1.68067144783976
H          -3.23872451014340    0.38038765520286   -1.73004230293583
O           2.73924179357109    0.23055315006267   -0.02121020090113
H           3.25523868478495    0.76305487865645   -0.62987370632460
H           2.26530389716940   -0.44561164258629   -0.57899657113871
O           1.34934344770865   -1.44019371127571   -1.47444449054631
H           1.52904002447531   -2.38175952922999   -1.44307953486125
H           0.45399503196767   -1.32470559471650   -1.07580236965347
O          -0.60786437916674   -0.05186895500936    2.33397321063804
H          -1.48078643668602    0.18019040495139    1.94351314195309
H          -0.41548087134473   -0.91815200974030    1.95583068339465
O           0.77534592974379    1.53753733556586    0.91713170747339
H           0.08533945629391    1.47258590310420    0.09930811746908
H           1.62174579814815    1.03469813044659    0.59742163674669
H           0.31581034331075    0.95508912355965    1.63313530213820
