    19
        -40.92174078
S           0.86437551985907    0.18406716462157    0.14847460740538
O           0.40510575055264    1.52955688310275    0.42171360957796
O           0.15950428422750   -0.80413033387515    1.05928079451242
O           0.74558639886301   -0.21968432388474   -1.22186052564517
O           2.34437635238523    0.07255239167843    0.57473904588128
H           2.42546677188394    0.60274145570361    1.40942337166517
O          -1.86602842330809    1.14205715137407   -0.99902346278344
H          -1.13607528429230    1.49753339526681   -0.46563771152779
H          -1.49574975121491    0.97025737402154   -1.86879290163491
O          -0.81673226956810   -2.27041065273037   -1.99466354968694
H          -0.18211834248192   -1.53854485980848   -1.87490524271450
H          -0.30405130752185   -3.08022878856565   -1.97637252884968
O           2.04351794409356    1.80662203282001    2.48303599974094
H           1.25261539826675    1.96447332140409    1.93500363281642
H           2.57637971827530    2.60472953572472    2.44105785296445
O          -2.07804838071723   -1.25883524487226    0.11611859914001
H          -2.26851346560891   -0.36208373973031   -0.24778994438210
H          -1.82074706391543   -1.80042320046052   -0.66566704375442
H          -0.84886383977814   -1.04024956179272    0.72586539727516
