    19
        -40.91535450
S          -1.50188892134901   -1.31388181695738   -0.16748982541877
O          -2.03649557918932   -0.45406510703468    0.96506751700524
O          -1.51773120104785   -0.59295552681753   -1.40544930850402
O          -0.25618122303872   -1.91944892566316    0.19912026978099
O          -2.57969717598990   -2.45138768096613   -0.25183393677402
H          -3.32908074687243   -2.05859329221245   -0.69330113824424
O           2.45121350564718    0.91415072178945   -1.13236888656500
H           3.08241701364123    1.59302733709901   -0.88747112669708
H           2.30958094656662    0.36230198321353   -0.34497864456309
O           1.70758714548422   -0.46352114323855    1.16057520769468
H           1.04230221834029   -1.07572181275590    0.77080567301382
H           2.21115708796477   -0.98356400080604    1.78958302899302
O          -0.14238649931096    1.75680319356234   -1.25197603701308
H           0.78633796940218    1.50513093332184   -1.42177829549694
H          -0.67857179414257    0.99864385231866   -1.53733993355077
O          -0.36375339764862    1.32379927375876    1.27882550377945
H          -0.29993387253869    1.66459834841014    0.33013891687462
H          -1.34583583311353    0.36810450341553    1.16806700251247
H           0.46096035728469    0.82657915947780    1.43180400318374
