    19
        -40.91392439
S          -1.01889275717221    1.15815969583323    1.61665139266442
O           0.46675180724001    1.44078785514483    1.73709476752199
O          -1.69897182582993    1.54277427571239    2.79763845854970
O          -1.52615176786032    1.59584487812226    0.34887098611764
O          -1.06780834846623   -0.44637714097810    1.53898695954175
H          -0.96808874182217   -0.74006095782266    2.44129257786800
O          -0.58546728119675    0.74295547117933   -1.92962519870071
H          -0.85976439854258    1.30650422154244   -2.65485141813898
H          -1.03846382124328    1.08507434355755   -1.12299599404035
O          -0.67443255550409   -1.84581530190149   -0.93430449218497
H          -1.07508413147813   -1.57109206311170   -0.10170254539851
H          -0.70950562647566   -1.06366187392489   -1.50731922142546
O           1.88419749090459   -1.78505585696390   -0.17339812968905
H           0.95392440551730   -1.96095843963411   -0.44891207457737
H           2.44585316522560   -2.28815599507383   -0.76458144910828
O           1.64244931077844    0.84616758515479   -0.37024571283927
H           0.95949512744207    0.86056096263921   -1.06937640688398
H           0.99546049426336    1.22936225788309    0.83917785119471
H           1.87449946389259   -0.10701393784087   -0.24240034007138
