    19
        -40.92136406
S          -0.89027711641020    0.39745662098866    0.98621567270109
O          -0.87666302990713    1.73599445077724    1.52210409520739
O          -1.28067505074796    0.36774221645413   -0.43438886962035
O           0.33435751503344   -0.34070631366341    1.19836407549968
O          -2.03684235851101   -0.39712482164647    1.74444019599685
H          -2.66977612183476    0.27475699009458    1.98147535871999
O           1.47868015070221    2.16053326620743    0.41969144789174
H           2.03895477420456    1.63252965185537    0.99535208258981
H           0.60268809220864    2.18965306379925    0.86732711410330
O           1.53320536638630   -1.42017971777882   -0.86615914039535
H           0.76385570975071   -1.96989169949919   -1.13369895688060
H           1.30009030830226   -1.16187633861188    0.05491387401450
O          -0.99717989686569   -2.25262161884763   -0.94401458046798
H          -1.29579119875255   -2.71747999903751   -0.16053483412005
H          -1.26422867652352   -1.32182074410512   -0.82363063088935
O           0.85733502641795    0.82589150916933   -1.66447892340383
H           1.24191292550732    1.45336858088045   -0.95240134230146
H           1.27065070496822   -0.16467373630894   -1.44963261243286
H          -0.11029713427850    0.70844865921973   -1.34094400639841
