    19
        -40.92139818
S           0.27556554000545    0.25363607030127   -1.15259674000358
O           0.31657531025042    1.42628469664360   -0.28038778009328
O           1.43933522642975   -0.60443464635091   -0.94493226251103
O          -0.97495102036425   -0.47486417231413   -0.96287505642059
O           0.34399639582897    0.74292510193255   -2.62763964373913
H          -0.45317305045894    1.30624317049018   -2.70479822915923
O          -0.98904235786509   -2.22137649929902    0.95896980099703
H          -1.63925241361799   -1.89083159066506    1.58281561866943
H          -1.06343390402664   -1.65004649358916    0.14945136984566
O          -1.86683221639797    1.94766367678998   -1.85162158877136
H          -2.12114089338652    1.05878988733424   -1.56894112376931
H          -1.32096644364606    2.29026440561384   -1.13168398090057
O           0.95530195506562    0.78946858195504    2.13982476443771
H           0.66142529656153    1.11324198349128    1.24287392837159
H           1.68905722480123    1.35286272836431    2.39458211627679
O           1.41908672469923   -1.56098788820832    1.32898009417172
H           0.47210564786880   -1.97707205142259    1.29164511237058
H           1.55371528507373   -1.24431247744493    0.32231058105891
H           1.30262769311385   -0.65745447364627    1.81402301913938
