    19
        -40.92136306
S          -0.70541570990297    0.99774118655226    0.65437921041529
O          -0.95312249022600    2.27812349404128    0.03921178364633
O          -1.39684175381798   -0.10123355728117   -0.04209512307289
O           0.69451251773803    0.68796293491058    0.84016973555047
O          -1.35738451930817    1.04334069110239    2.10156646125174
H          -2.06516214355022    1.67605818503773    2.01866149204403
O          -0.49991308930865   -2.19694721215445    1.37565967859719
H          -0.45710771000206   -1.91120023517353    2.28981060577785
H          -0.98823568390021   -1.50016567644594    0.89782600050159
O           1.62387114434978   -1.57061428474006   -0.10696753849576
H           1.55256676922199   -0.70617127351699    0.35920933457353
H           1.00525458962036   -2.13871173078127    0.40330324415642
O           0.84564596753751    1.74124376277742   -1.81093017788399
H           1.65419666716241    1.83608350418043   -1.29970475292373
H           0.13129183946391    2.09166409973361   -1.23183489794535
O           0.15911500262167   -0.71460189377629   -1.91234725174398
H           0.50395998550573    0.23779912236116   -2.06243085382212
H           0.87974193507339   -1.19519421698283   -1.24221361049858
H          -0.62697332817545   -0.55517691984233   -1.27127331023788
