    19
        -40.92219814
S          -0.56020242433926    0.39455659654033    1.32889623268199
O           0.58572312162285   -0.45796201252509    1.05130378940144
O          -1.17868051404717    0.82472756558194   -0.01916829857516
O          -1.52682895126793   -0.18505423446158    2.18940719042959
O          -0.05859493070985    1.73810161110570    1.87464929926508
H           0.48331229815230    2.12841411934938    1.12783829939580
O           1.10522095969667    2.47542262795954   -0.32302158490276
H           1.39420185895821    1.65449433508295   -0.77217777675813
H           0.34281926213564    2.79081663488578   -0.81562917149295
O          -1.02176055633098   -2.56326227528417    0.54813762742377
H          -1.76231273152626   -2.37929630334619    1.13270291918251
H          -0.28476241534505   -2.04544109239041    0.90710310258253
O           1.68201525818096   -0.03501979086408   -1.26482670064832
H           1.36138204475915   -0.27762677604411   -0.36413751193790
H           2.60028812526866   -0.30790545016001   -1.31060673524641
O          -0.95122730700016   -1.06536719347044   -1.66098227727697
H          -0.01284739380955   -0.95415269522544   -1.87191551857635
H          -1.02394727694078   -1.81048594313567   -1.02184329772042
H          -1.17379840568944    0.07504025764762   -0.73572961098025
