    19
        -40.91833236
S          -1.32961551362548    0.81467904646267   -0.73872188462462
O          -0.06863450220459    0.99038463783905   -1.47626469904761
O          -2.15181763000865   -0.21812607989522   -1.31816901857147
O          -1.09100877893402    0.66714438573580    0.68351442575637
O          -2.11653782442549    2.17861840438441   -0.91083063420465
H          -2.44960204468998    2.12737014520983   -1.80160156801626
O           1.06419196190925    1.42115254770217    1.90840723060898
H           1.11777677008245    0.88793922436092    2.70422563633135
H           0.16186693768135    1.26739947969798    1.52771106050537
O           1.54520679476963   -1.99065404887802   -0.01873410800134
H           0.55583947560247   -2.06117824839347    0.08982958541290
H           1.76508424677490   -2.51972299327611   -0.78773345801599
O          -1.06085305445472   -2.06240772635557    0.20755471684685
H          -1.28853213271635   -1.61779307779637    1.02908698413341
H          -1.51357759916297   -1.52835196654989   -0.47956096018799
O           2.00668339680871    0.49489081459601   -0.26273566627330
H           1.91111798018885   -0.52534658036734   -0.15506898775616
H           1.14535708986532    0.76498674477551   -0.85149587320139
H           1.79705442657783    0.90901530071288    0.65058720823619
