    19
        -40.92246923
S          -1.02742165593163   -0.25875910341918    0.15394879394688
O          -0.02975212489625    0.26231225836549    1.18502240096513
O          -1.44666894337288    0.83625009318183   -0.68961942662987
O          -0.49205677296680   -1.39108226567292   -0.53956187875183
O          -2.21351068601403   -0.71408378746670    1.03194820259827
H          -2.55786421809807    0.12786223975094    1.42255025747958
O           0.83439496416326    0.79059508176142   -2.13257269122960
H           0.77519658817913   -0.05966430867209   -2.57528965544546
H          -0.05033599368037    0.96313733061213   -1.76744844968894
O           2.05891112745181   -2.21487657235583   -0.33154754050736
H           2.12009015447690   -2.90483762829580    0.33117948861348
H           1.10741562522423   -2.07073916745113   -0.49468847333371
O          -2.51719818890652    1.80988772268656    1.57855823960927
H          -2.27121509766134    1.87586006926986    0.64140665949713
H          -1.73741257278950    2.05707556326520    2.08355503546529
O           2.18385144155718    0.39541578834043    0.11121891221962
H           2.39014781410858   -0.56229885738644   -0.00566523062678
H           1.88620234895188    0.70022035598018   -0.78030583340719
H           0.98722620047566    0.35772518979568    0.77731120004503
