    19
        -40.91923773
S           0.27950866747604   -0.74342107112223    0.56314158809723
O          -0.03166937406175   -2.12373596604960    0.40436008740813
O          -0.75285705032944    0.08204466900700    1.14179993821550
O           1.57810236883204   -0.54494657245614    1.34208262872492
O           0.63822559190312   -0.14916253826475   -0.83982913187553
H           0.06898515475861   -0.66514747220678   -1.52426441456407
O          -0.90864622847792   -1.58984995398151   -2.20982653841137
H          -1.72453958083780   -1.35718621576348   -1.70355169496048
H          -0.62310053058513   -2.43810885145805   -1.85308607396068
O          -2.71359605351011   -1.01290875024593   -0.34650885809212
H          -2.92389986146429   -1.81255912598077    0.14143864965614
H          -2.14876559621314   -0.48499707914637    0.24569808391269
O           1.50838564287451    2.46490141919060   -0.55002090587714
H           1.15885305025433    1.60167191540704   -0.82130489527800
H           2.37340490658899    2.55431984568837   -0.95469365309365
O           1.14981942051183    1.84049597032432    2.03121178265721
H           0.19901215155266    1.66340800305563    2.04049630694302
H           1.54698416524566    0.41640337206476    1.71214201676669
H           1.32579314548117    2.29877839189993    1.18071507374142
