    19
        -40.91892054
S           0.24124386675454   -0.94673759842453   -0.65185118897286
O           0.00570216959201   -1.63496253952737    0.58779762862713
O          -0.98888519819871   -0.07132061545622   -0.95771936015729
O           1.43192474800673   -0.15562195619472   -0.72627828256361
O           0.24448816346978   -1.97250693469761   -1.81217678511175
H          -0.57681881598309   -2.50749177986521   -1.67583419780366
O           0.11464555394216    2.54105623107407    1.53269766903042
H           0.55879295439121    3.26370319321082    1.97951290189957
H           0.57559432445206    1.71662648077830    1.81038209150717
O           1.46474471886236    0.26929723360276    1.97252174376195
H           0.87795762512741   -0.49637923834598    2.00793419553042
H           1.87268952580882    0.20532113357609    1.09781464741118
O          -1.98144812191241   -2.84636459374105   -0.78125336280838
H          -1.49747392625020   -2.64895484995412    0.03634166001063
H          -2.61533068701665   -2.13346236099681   -0.89977191605845
O           0.04179972075221    2.20176666862852   -1.09078736642067
H          -0.00822503040400    2.46703185518317   -0.13781892969252
H           0.92421095705541    1.82921224529011   -1.21492143792266
H          -0.68561254850281    0.91978743593415   -1.07658973023385
