    19
        -40.92174076
S           0.47087114098214    0.28497130413639   -0.70821995279616
O           0.85178901452271    0.78518033985237    0.67296282717361
O           0.85215680563664   -1.10357419062611   -0.85843543699706
O          -0.91010463731291    0.55679320763585   -0.98017877080864
O           1.34292536207328    1.14022003691731   -1.65288226517321
H           2.24808776318116    0.73495550163768   -1.62512787081287
O           3.35783550020783   -0.48388844002153   -1.44759502901126
H           3.67220034814369   -0.89873185721331   -2.25494056559474
H           2.61961366100551   -1.02874272725964   -1.11749984866648
O          -2.59283031098584    1.51135961331918    0.89070813974596
H          -2.10825007911035    1.20793932212769    0.09963038181574
H          -2.57981553074426    2.46957041880151    0.86639694487902
O          -1.30491620500004   -1.94510323353973    0.54276489702582
H          -2.01216073555109   -1.62009566478727   -0.02052349542556
H          -0.49173420209554   -1.87183016569877    0.01628279562373
O          -0.87278675287594    0.02515603754526    2.27041932062264
H           0.15189217210830    0.47092059491223    1.44416220926555
H          -1.61692664793625    0.61255483289755    2.00264159078038
H          -1.07784666189098   -0.84765491072902    1.85943412902642
