    19
        -40.91184053
S           0.84127347525188    0.75141858802424   -0.15935357259681
O           1.27509297492788    0.79626854716988    1.21424226396197
O           1.56577554030511   -0.26543562670821   -0.93404204566886
O          -0.59082789779367    0.58326510503643   -0.32591893322868
O           1.20417420106418    2.14378582075084   -0.81542459269880
H           2.07809170532881    2.34256235432728   -0.48957923614683
O           0.01991433017539   -1.36087433260668    1.95547236925125
H           0.55786538593449   -0.53743809449240    1.85931599498588
H          -0.89291412271219   -1.06902163809607    2.02868225347438
O          -1.61738975091980   -1.58805238418677   -1.37242420477403
H          -1.67260379689558   -1.49127446802462   -2.32518607670556
H          -1.39972783575070   -0.69586226977877   -1.01138513906133
O          -1.18021694093273    3.04363482931428    0.77142005896862
H          -0.67775334449732    3.60435801045489    0.17793668803169
H          -1.09050836127616    2.14686493857569    0.42484323573896
O           0.52613554408455   -2.40628835789090   -0.29050194890522
H          -0.36840011730074   -2.28080843267997   -0.77835343281262
H           1.09347378220737   -1.56628140877022   -0.62432232880739
H           0.32854522870488   -2.15082119147307    0.69457865177663
