    19
        -40.91146903
S           0.04035153488929   -0.51793519997333    1.01408414785249
O          -1.35402827844414   -0.92360530534520    0.77741619369361
O           0.94472458696827   -1.32380787696580    0.22395073187179
O           0.21526453987304    0.90625611036203    0.84196200987933
O           0.31683814497193   -0.83437810343376    2.53665162127944
H           0.12540969656334   -1.76405142750632    2.62093726091244
O           0.35750790833967   -0.97759509458154   -2.26646346144146
H           0.71713092412393   -1.09975719519904   -1.34644207858107
H           0.49646785674915   -1.81192788123326   -2.71971042117832
O          -1.17452944445194    2.18353818341214   -0.96687212095825
H          -0.52642779539286    2.58128693675067   -1.55322031134739
H          -0.67071283077320    1.85870903418000   -0.18247895395573
O           2.71262137312035    0.80733797303751    2.02400997741768
H           1.89655175034751    0.96330593692598    1.53312441413803
H           2.44795006877606    0.35788576109937    2.82845811813286
O          -1.91605456126635   -0.17415567274899   -1.50352055874714
H          -1.06565660589401   -0.53069972580235   -1.96419199125070
H          -1.80852734969270   -0.54132090413370   -0.50611488944386
H          -1.75488151879167    0.84091444114945   -1.39157968827971
