    19
        -40.91103813
S           0.34540729970992    0.77514795108188    1.27130858869337
O           0.39534620483474   -0.24636621135298    2.29784068780377
O           1.33036483590075    0.47998574809071    0.20862037217857
O          -0.97032951771725    0.98756961532116    0.72440529818276
O           0.81546167910105    2.12690619286727    1.91579099958730
H           1.68668859984811    1.93754910876347    2.25157747719868
O           0.70996620114513    2.07314595287927   -2.02402950976354
H           1.03693997675959    1.64320526050336   -1.22389071318921
H          -0.15448104120545    1.69589298870575   -2.20425018021261
O          -1.59682093826775    0.09796319383484   -1.61376603443953
H          -1.44951944895656    0.55773229000332   -0.74426821865953
H          -2.49707236407217   -0.23285817311068   -1.59663073654855
O          -0.42013757415328   -2.37077656240240    1.08445690218958
H           0.02275411148646   -3.12118369769844    1.48738973714184
H          -0.19043995441977   -1.57945580940481    1.64512939167681
O           0.38973000811744   -1.39112023602656   -1.09594288263768
H          -0.42626538397624   -0.89336863924111   -1.47735288040449
H           0.92744595529341   -0.60555035378655   -0.61985366759254
H           0.04496137053652   -1.93441862908458   -0.28653462110138
