    19
        -40.92219806
S           1.05370415187641   -0.72235951947017   -0.77763800692675
O          -0.38949318358163   -0.77053615822520   -0.95545302774580
O           1.36084997723948    0.19822645037714    0.42376743915629
O           1.66977707066866   -1.99188377346195   -0.63780977558122
O           1.66992814143613    0.07443844203435   -1.93528298434036
H           1.28453945588456    0.99457456761494   -1.84243582815781
O          -0.64637548311846   -2.51315908088157    1.08616394303154
H           0.18534960497236   -2.99202031181958    1.03232807851339
H          -0.76201064006195   -2.11256777618329    0.21078737850385
O          -1.63808061429712    1.32153058596110   -0.05517352026971
H          -1.27759409172330    0.48834668397921   -0.44076605336601
H          -2.49075010352022    1.46766971601587   -0.46907293627503
O           0.60120717734293    2.34144522160430   -1.26717029489328
H           1.20235328180878    2.60594256423521   -0.56562752967256
H          -0.24763529326637    2.12894339534408   -0.82738295807833
O          -0.45619942502927   -0.06742078279255    2.14079870392581
H           0.68297841940552    0.10375939368703    1.20276927248118
H          -1.13960934473735    0.46036130901313    1.70276549863916
H          -0.66293909121185   -1.01529092694614    1.97443260101697
