    19
        -40.91235078
S          -0.76190168809028   -1.34833513286323   -0.09504162889251
O          -1.92432394786856   -2.03650537639754    0.37172886367971
O          -0.39545783452437   -0.22901041422442    0.92190947963968
O           0.40962043209826   -2.09684245575831   -0.39893341041751
O          -1.15355006618384   -0.49454071462739   -1.34809191061519
H          -2.07254561597203   -0.17379011484691   -1.16050020711519
O          -3.45455208772547    0.01842978211793   -0.25669445877859
H          -3.25545994836470   -0.85947684879610    0.11964110295107
H          -3.44633365435375    0.64072261853373    0.47470821545521
O           0.42372470053114    1.83611193694542   -0.78531859573782
H           0.00871346065925    1.30818402771440   -0.08763278131733
H           0.13974726962850    1.43814107681636   -1.61312012683581
O           2.96728067174863    1.22448475146144   -0.12339536930688
H           2.10658244695391    1.55106801820202   -0.46266551427938
H           3.38374538760351    1.96352794540076    0.32309002124804
O           1.99364224743591   -0.75726126762313    1.33211777500853
H           2.48149426561227   -0.05641229198422    0.82551671509701
H           0.60847908687885   -0.40178866603199    1.21653654295581
H           1.94109489384173   -1.52670686401965    0.74614528679968
