    19
        -40.92003352
S           0.70914454111449   -0.23151668243759    0.46720923580365
O           2.17333604000283   -0.03047594912757    0.06939989681178
O           0.08170275725648    1.03369124339814    0.75405531875122
O           0.02635011848502   -0.97927617354956   -0.56185735433107
O           0.84212196797032   -1.06688710793111    1.74215702883121
H          -0.07720387424918   -1.30245946883614    2.12052424712754
O          -2.40011961983157   -0.28116523132864    0.37225135483927
H          -1.68417781373290   -0.61189048095690   -0.19807475068825
H          -2.16165337808522    0.63145426053648    0.56420113902507
O           0.40956982330535    2.32139029000596   -1.57217269600972
H           0.83548665203159    3.16708988561246   -1.41795536445623
H           0.19846582094811    1.95394650386146   -0.69218565470454
O          -1.53243057819002   -1.64565193439391    2.44646595711213
H          -2.02566410957725   -1.13753905874119    1.75013089454616
H          -1.70757504953655   -2.57575925060589    2.28342543322854
O           1.76108918978037    0.17759644517462   -2.41312993413751
H           2.19085434318805    0.03276436216200   -0.95509609940009
H           1.06903884273022   -0.49472648109394   -2.41418794760017
H           1.29166431652949    1.03941481827229   -2.34516069457067
