    19
        -40.91451114
S           1.27035034890832   -0.65067234224213   -0.59714488309080
O           1.77970301361284    0.58851554401815   -1.09406269090329
O           1.33673840619047   -0.67714304528287    0.91882983148081
O          -0.01977981187438   -1.06926616292956   -1.05357092683540
O           2.28606955972121   -1.78109445081579   -1.03094859558888
H           3.17174587609052   -1.42856479664757   -0.96672313837124
O          -0.80222991191524   -1.75850469734710    1.48392107714522
H          -1.05074503501685   -1.89377842465536    0.55925295104557
H           0.46031216735468   -1.19554742136393    1.27088931959612
O          -0.33923280989116    1.84692710430587    0.21248290032800
H          -0.79659181786909    1.81314770856865   -0.65058097261499
H           0.57684295445809    1.62894755814461    0.01003148615570
O          -0.93039008517205    1.17498192616974   -2.34685843768374
H          -0.78305094349820    0.26645113893673   -2.04293146490119
H          -0.10081782169668    1.45750589704870   -2.73941678488323
O          -1.81720061897760    0.56867970048216    2.03653075270720
H          -1.60983490477575    0.96527564302326    2.88423415341457
H          -1.32534872212042    1.09120139866528    1.36259179759343
H          -1.30653985353086   -0.94706225807560    1.78347365541301
