    19
        -40.91893379
S          -1.60752881447204   -0.60270995799157   -0.25872816515291
O          -2.49033092547215    0.37538568677986    0.32461207814911
O          -0.82787361512899   -0.13277687902626   -1.38685721486896
O          -0.74750456523627   -1.24236762934626    0.74882707914449
O          -2.53106223326532   -1.76373011046242   -0.82292299742180
H          -3.24847351277469   -1.79028935784289   -0.19706027335942
O          -0.52216390141948    2.12826316533985    0.19808583901599
H          -0.34675346002542    1.97504083923954   -0.73526270159076
H          -1.33451343521625    1.61196626292403    0.37632594189542
O           1.53428716851346    1.42195322040770    1.66278303506709
H           0.78833017259628    1.78168225549827    1.11101598017220
H           1.22932855030754    1.44735183480593    2.57181973626989
O           1.68467100951169   -0.61035920668073   -1.79912002394415
H           0.71987201905783   -0.38185767422353   -1.76213674904493
H           1.75797344190880   -1.37871193378876   -2.36810753184977
O           1.69118344720047   -0.91898516224483    0.72012671530904
H           0.64440640677530   -1.13781022196721    0.76695037287060
H           1.86003516048307   -0.81097715361706   -0.28520086515172
H           1.74611708633345    0.02893202191215    1.13484976433605
