    19
        -40.92315427
S          -0.37029806382639    0.20606311922123   -1.64452315309573
O          -0.84295304813869    1.09553014105604   -0.58189922340713
O           1.08512913493600    0.31070288666856   -1.77796209349001
O          -0.84074947232168   -1.14154407004290   -1.46856296140833
O          -0.95434726253350    0.75347296455401   -3.00064718242194
H          -0.36011820254350    1.46794404784228   -3.20820261774705
O           0.25591634248271   -2.02373135706109    0.74600636307944
H          -0.38992659880751   -1.54396625263698    1.30774437456532
H          -0.13704721299666   -1.95968094193460   -0.15406005693895
O           0.74461706800134    1.57330436935531    1.49101501106362
H           0.16681763142685    1.24460060368906    2.18796845903807
H           0.17154332345327    1.63849933836479    0.69564147907274
O          -1.55895696923505   -0.24516922504296    1.59723402567785
H          -1.43234320877635    0.25118176348897    0.75824204973696
H          -2.46677855919724   -0.55170172503008    1.58963394827865
O           2.05235003608889   -0.32614171164209    0.42211603655892
H           1.68594407903266    0.46563044267693    0.96744524776847
H           1.39537364086246   -1.14304584322678    0.63106550502165
H           1.79582734865788   -0.07194854138720   -0.55825522304600
