    19
        -40.92136353
S           0.53011716342117    0.55523029537650   -1.15473821746024
O           0.69929969307477    1.97981961522852   -1.29937361400849
O           1.28754932335792   -0.02715560649880   -0.07013825986147
O          -0.88908543331281    0.16702333328821   -1.07135186669971
O           1.06230432588427   -0.11688090808606   -2.49113808273979
H           0.90199362558343    0.53959441975765   -3.16316650466321
O           0.03012474251700   -1.47492409107070    1.71571359831275
H          -0.32120103061375   -2.12303027931608    1.06576107594323
H           0.74081357426425   -1.02494037598935    1.20414671626960
O           0.32071237255451    2.29569339377279    1.28856850176145
H           0.45082708216399    2.36805202776213    0.31560154296671
H           1.15333229484330    1.95816773291723    1.63035695289840
O          -0.62508420342835   -2.47359052423929   -0.66608478981856
H          -0.82699250482394   -1.56150365337699   -0.94821447947551
H           0.11747776218232   -2.75840583907703   -1.20137662162733
O          -1.46089691090145    0.47044666214013    1.35277176617851
H          -1.43841041257837    0.36577143571121    0.33154662070975
H          -0.89325226495588   -0.41153684759654    1.66558165768628
H          -0.83962922992400    1.27216921965350    1.49553401364661
