    19
        -40.91983410
S           0.25648078410110    0.85954780499786   -0.14393465257572
O           0.29719587723317    0.08262398346893    1.06629481293484
O          -0.39989944928203    0.18069865200746   -1.23997882365738
O          -0.41288725470403    2.20843746350565    0.11357455374485
O           1.67837944048696    1.24805906756395   -0.56406980722155
H           2.28738077606203    0.47008977456721   -0.28470971607324
O           1.19858746424674   -1.93303462066478   -1.70428337505958
H           1.46476292784007   -1.93250979564292   -2.62605687764420
H           0.52099944892973   -1.23674847726360   -1.61308300530245
O          -2.70636065658134   -0.34662388616700    0.07575162674719
H          -2.65850632855299   -1.28231406054452    0.28340586814871
H          -1.98624536762196   -0.17055947373964   -0.55420747174773
O           2.76001958781020   -0.90042058859303    0.20287627004130
H           2.35188283949057   -1.46937595359361   -0.48798671922295
H           2.17461896903602   -0.96353392334762    0.96773641379227
O          -1.96392082337465    1.42302512630707    1.94227843955749
H          -1.28360841616417    0.85890077065635    2.33053868339540
H          -1.08986264221266    2.07302273291469    0.87606700051877
H          -2.48901715675457    0.83071541361764    1.35978675956373
