    19
        -40.91413631
S           0.96446818223398    0.51917576159788    0.10202314485601
O           0.35684519252621    1.80622500996081    0.09357196840130
O           1.31464257886545   -0.02958129577498   -1.18534251270672
O           2.20620078130620    0.53751926147435    1.01561934338844
O           0.03233115322433   -0.49787172086034    0.81009621279321
H          -0.58927766026424   -0.83885986952566    0.04307074748926
O          -2.24487937528368    1.42218645818486   -0.70520558692489
H          -2.61254575766605    1.25723849411336    0.18151824667523
H          -1.38657742522398    1.84379482642487   -0.54007460770769
O          -2.53060107260069    0.33102805116823    1.80316677053067
H          -1.58746356177106    0.12522213481467    1.79583297639481
H          -2.99568394581868   -0.50819592353513    1.81398982625172
O          -1.36331432825681   -0.96839292526830   -1.20421003020490
H          -1.84614241108357   -0.08913652357728   -1.16316241735847
H          -0.66646993203040   -0.86372100818175   -1.86082537383064
O           3.34702766803215   -1.42198347015813   -0.23926497865602
H           2.65074324777506   -1.14834669489621   -0.86650190096617
H           4.19110557029293   -1.22813208933596   -0.65453474752628
H           2.75959107554880   -0.24816848683185    0.76023289910506
