    19
        -40.91413652
S          -0.17976878258632   -0.79623768116588   -0.73761078127195
O          -0.40895483070718   -1.68187544320951    0.37789624660785
O           1.15330569964837   -0.74052783661956   -1.23327748365292
O          -1.14670581448977   -1.14495027839622   -1.88651980800937
O          -0.64401907264084    0.62209580322790   -0.31667032952119
H          -0.32047291737139    0.70456398381343    0.67337775449262
O           2.57616345680589    0.78170438981365    0.55942777808405
H           2.36254540692042    0.13143335553484   -0.12850611832606
H           2.38980571330142    1.64471900432175    0.14823439569884
O           0.39666957371974    0.53931067094404    1.94938857901553
H           0.28099462301581   -0.40489903130425    2.10054810411554
H           1.33145535612493    0.65669957374748    1.60251624030681
O           1.14322529035085    2.85670201840110   -0.53921232387530
H           0.45330169697042    2.22361284048019   -0.77418825247564
H           0.75925387968963    3.45684197255994    0.10343669894499
O          -2.91619679146766   -2.16288841608710   -0.29032979577481
H          -1.98578805734465   -1.47046344695623   -1.46371088417541
H          -3.12372928518943   -3.09170290642487   -0.41966844176913
H          -2.12108514471769   -2.12413857261205    0.27486842158726
