    19
        -40.92315435
S           0.39789656554086   -0.04610902141784   -1.64983815874386
O           1.34817852889335    0.29290402691544   -0.58883689102774
O          -0.01253794001163   -1.44753799793088   -1.52925238429172
O          -0.70315646885193    0.87761805450426   -1.70255301489176
O           1.17669172804208    0.04466017096995   -3.01554672975371
H           1.63977551187298   -0.78672996799361   -3.04569705902344
O           0.24866297687799    1.82771242226003    1.28037511961986
H           0.28140161438630    2.76570477631110    1.08720196744496
H           0.70624679907147    1.38044086034354    0.53412102532523
O          -2.01519627353231    0.59350921339731    0.55171332969565
H          -1.36403411984278    1.13439927566291    1.04812555568100
H          -1.77577815685307    0.75988403753437   -0.38838000698322
O           1.14108404568811   -0.93096616687611    1.75720849045965
H           1.00727521100721   -0.15349369634537    2.30964973591905
H           1.44000099736016   -0.57848772717853    0.89022148590077
O          -1.04809972862663   -1.69771072761644    0.71739600617044
H          -0.67592595230570   -1.73702434301142   -0.25790008783240
H          -0.20336887621921   -1.52337921677239    1.27800796722121
H          -1.58911647249689   -0.77539395275646    0.72398363911003
