    19
        -40.91971849
S          -1.15397182963353   -0.72047157729397   -0.38870895826673
O          -2.49834655962058   -1.12412833778868   -0.63335863948691
O          -1.05060032208601   -0.10125091062420    1.05439039564033
O          -0.12168100057059   -1.70557258001787   -0.48145876687061
O          -0.84012289818277    0.47688353193013   -1.29403447085917
H           0.16402913849905    0.76721826275285   -1.22710204677595
O           2.49378631115845   -1.36958178657438   -0.16862490885127
H           1.54749191784205   -1.59543126875871   -0.27508089146986
H           2.98142997172358   -2.18343308465331   -0.30292255631609
O           1.63648801952247    0.65130222904817    1.60652243393185
H           2.14973086824304   -0.13522820672677    1.37236963502491
H           0.72665563760944    0.35503370295486    1.73246155730925
O           1.56428445158249    1.11665971133801   -0.99442023958660
H           1.62852407557532    1.22873958039702   -0.01356857988721
H           2.09558777215958    0.32448458569192   -1.16465303185284
O          -3.17270324992425    1.23000748907765    0.41114940259767
H          -2.95982044737174    1.87786058818286   -0.26610510924443
H          -3.36072230684383    0.39683847443962   -0.05504776487941
H          -1.83003955968182    0.51006960659781    1.08819253986832
