    19
        -40.91971856
S           0.11782511159473   -0.41699360777277    1.34690195061430
O          -0.99032002444199    0.61863642883356    0.92734726893025
O           0.22456221404873   -0.44358484327918    2.76758395555956
O          -0.18911673020863   -1.63640101243521    0.66617180688330
O           1.39823947875704    0.20924846800193    0.78118198235903
H           1.42076757097362    0.17858992320133   -0.26537248508285
O           1.30242539728384    0.13703789572712   -1.72207055732414
H           0.43393050974979    0.57177975681940   -1.90978505844611
H           1.15081980246847   -0.78552944522786   -1.97667718733018
O          -1.28500227657254    0.64815976795189   -1.90151424037174
H          -1.37409059101240   -0.28684615525036   -2.13517395054728
H          -1.49077253873221    0.71447900479239   -0.96092029814157
O          -0.41320899054467   -2.03746917619272   -1.94947608011916
H          -0.37784708176140   -1.98159211113778   -0.97301993221359
H          -0.60098838550067   -2.95325632452250   -2.15982799861658
O           0.15254465795977    2.21298027586385    2.61295334911544
H           0.27690547677205    1.36971950887859    3.08238537538483
H           1.01824962675099    2.47132481113941    2.28510893174740
H          -0.77492323757690    1.40971684460881    1.48420317760524
