    19
        -40.91649243
S           1.27563764750677    0.74762223724364    1.02080082981748
O           1.72107233237040    1.97245422557851    0.42230056666511
O          -0.08146170804579    0.84628876687554    1.57773125293850
O           1.38944664556464   -0.42810162894540    0.16324332521391
O           2.22780807329388    0.45816770318476    2.25558017299970
H           2.43903388816515    1.32758008623941    2.58242601692519
O          -0.16688246201934   -2.49512987602416    0.30716163578244
H           0.55047656830728   -1.81267259199687    0.33101545094538
H          -0.05324851341724   -2.97958753590782   -0.51265341081368
O          -2.00490123222279    0.47157687017634   -1.60370470180786
H          -2.25337554249192   -0.00045511931540   -2.40009494313176
H          -1.07485701241564    0.79745219763563   -1.74331925481312
O           0.53069056729484    1.07316151037040   -1.85022055129367
H           0.84287161995429    1.87626758767856   -1.41310829648880
H           0.95223594471581    0.37121021463801   -1.32294276431646
O          -1.84596669947247   -0.61298442317934    0.69691424124664
H          -1.31486960316737   -1.47006687456543    0.55324057252076
H          -1.11862644677306    0.04769449772998    1.15597107386067
H          -2.01508403896529   -0.19047790307012   -0.22034120800566
