    19
        -40.91413654
S          -0.05718798079451    1.09950837579380   -0.00405053277939
O           0.29336407727294    1.19132237347404   -1.38040631839060
O           1.03883151712068    1.08422904887536    0.93392445044010
O          -1.03701792792403    2.23321589183303    0.35870921980962
O          -0.90335661685035   -0.17675598856831    0.23935326672624
H          -0.18849078454694   -0.91795570652463    0.41670254163231
O          -1.46999512999284   -1.97429870054698   -1.92573142727908
H          -1.58535218372645   -1.24919607282673   -1.29888510664076
H          -1.64384370163599   -2.78561179740210   -1.44394001014885
O           1.19143499770892   -1.30464109973542   -2.10226088174063
H           0.32364336765238   -1.66902918346319   -2.35298712369332
H           1.05896642755034   -0.34342674742861   -2.08912351638318
O           1.05201659011492   -1.71085049566082    0.45831583133437
H           1.25445014957865   -1.70677592828514   -0.52498514321679
H           1.65653794553297   -1.07820846021837    0.86100263087839
O          -0.35897063219169    2.22427240976335    2.86007311444704
H          -1.01362794790859    2.32434477871651    1.34857469735037
H           0.36755891995734    1.72259045336116    2.44340964604740
H           0.02103892308912    3.03726684888892    3.20230465145216
