    19
        -40.91166275
S           0.72351043814848    0.99587952919711    0.77190821106113
O           0.17045819469718    1.89066343512035   -0.23439685939701
O          -0.30051406955810    0.49421764406958    1.67603178038657
O           1.50306938377454   -0.09437704500028    0.21163702273828
O           1.72335951769667    1.87930647482868    1.62317351308557
H           1.46161060786009    2.77688197535627    1.43846537252411
O          -1.81952380700585    0.18218030242832   -0.69524325516942
H          -2.19212028321820    0.08419793474041    0.18645382353395
H          -1.20166508023679    0.94052283366383   -0.62719310651456
O          -0.45490322969784   -2.09022378106202    1.64077747492896
H          -0.44011293781215   -1.10571070750332    1.78859497331455
H           0.32093283559475   -2.43565803299105    2.08751093836304
O           0.52350041074778    0.44577431708300   -2.53378346786321
H          -0.05397775048925    0.84468378515574   -3.18654433352004
H           0.58693105742005    1.07450508024911   -1.80088143401930
O          -0.10440230225664   -1.70550355415084   -0.82411638684887
H          -0.29938548591570   -2.06158318581217    0.13217548367535
H          -0.85297411523006   -1.02464174455605   -1.00654537474188
H           0.70620661692072   -1.09111524799134   -0.64802436562890
