    19
        -40.92267749
S          -0.30009487347930    0.17321927267267    1.00743340650089
O          -1.58812638206915   -0.43302700389039    0.70440916594542
O           0.77235351104590   -0.79203702175849    1.09013094261723
O           0.01306097200332    1.21559213757305   -0.00154038591564
O          -0.39674427285328    0.90840844956568    2.37319994353041
H          -1.16142098225608    1.51254146434548    2.24482021133359
O           2.78021393130006   -0.83230815067595   -0.57504521824954
H           3.45236914663750   -0.21804809339041   -0.27357320586272
H           2.12825093722976   -0.91657989141942    0.16400246543665
O          -2.41602754171594    2.08548823917493    1.18182201805009
H          -2.56837635577473    1.16378250365609    0.91848371726090
H          -1.88076020282239    2.46876562698516    0.47947779281855
O          -0.69864573397348   -1.89403436896048   -1.28107815644351
H          -0.17681556642883   -2.56282638244343   -0.82902679091535
H          -1.19252086666416   -1.42242396316199   -0.56836232693673
O           0.83446410851136    0.00841029624385   -1.97507787342065
H           0.46746215846917    0.65309119175228   -1.18114371691056
H           1.72887761281286   -0.31674248847001   -1.59405073596557
H           0.20248042002553   -0.80127181779358   -1.88488124287763
