    19
        -40.91965225
S          -0.63579676188774    0.52630125155895   -1.29961992916218
O          -1.30343244455970    0.71660121507469   -0.00226979881516
O           0.78979785688578    0.26335950667555   -1.08177626506353
O          -1.27450693093139   -0.43022440287223   -2.14749895585399
O          -0.72479098600172    1.93827967548768   -2.00596951800628
H          -0.66023321184168    2.57588960103936   -1.30017558186910
O          -1.58954875111798   -2.21477881847505   -0.20909935876376
H          -2.28476193887671   -1.80571413620330    0.31099152947663
H          -1.54737098738870   -1.70088226526832   -1.04016923605261
O           0.86782522241514   -1.77051006915708    0.61831181918989
H           0.00269944783334   -2.19248194353400    0.39346882454857
H           1.06129275807181   -1.20637798152138   -0.16017719063880
O           1.88862326943465    1.70707251132147    0.77095779192452
H           1.56372359221686    1.24791543007569   -0.04518960108368
H           2.83594639493049    1.56203020113319    0.80715843353214
O           0.16172860439769    0.20488565541346    1.93284163166599
H          -0.56348818137271    0.45627250247367    1.21566688643404
H           0.51147181496065   -0.73990761669064    1.51954195608706
H           0.90082123287873    0.86226968347621    1.72300656249041
