    19
        -40.91015959
S          -1.90196794917540    0.19328975041921    0.17181711906799
O          -1.57223300954593    1.11483980024864   -0.99655643389828
O          -1.36585293465995   -1.11905743438413   -0.06318805924157
O          -1.58103417603443    0.78099105700434    1.43048714873330
O          -3.46495054826806    0.09947640813200    0.06088573747254
H          -3.64372923461196   -0.41890698372277   -0.72078044137797
O           1.27428833974933   -0.83679346047353    0.37537600136234
H           0.36709889523272   -1.15062200539519    0.20850697186758
H           1.28744925591452   -0.60188030818789    1.32362124781214
O           0.63325597493342    0.05804682527510    2.83488292536217
H          -0.16240517995709    0.45262756618397    2.43553412602730
H           0.33125154807006   -0.44832139882131    3.59073550536722
O           2.10514532134629   -0.64595882803078   -2.36073356541403
H           2.99660408835162   -0.89820401969436   -2.60548792971490
H           1.94638762761172   -1.01015657105005   -1.47853732377932
O           0.89518515684559    1.39296016005241   -1.00020906612875
H           1.23771727520695    1.03562228854283   -1.83691715608452
H          -0.53065046280163    1.30551411324420   -1.02773508820025
H           1.14844002105837    0.69653303936761   -0.34170172928384
