    19
        -40.91971838
S           0.06191148498965   -1.34930653602356    0.42756460252002
O          -0.27671649599986   -2.66518093216654    0.85657094975141
O          -0.83945882628739   -0.30626373841645    1.18675379378714
O           1.41305948393321   -0.90957783656639    0.58719164369207
O          -0.38936545829500   -1.18857866818995   -1.02952007987722
H          -0.09008183222863   -0.26993618567032   -1.43189048226813
O           0.32440169635992    1.06858475587193   -1.85340701018606
H           1.27961894405537    1.13934386750529   -1.70847128518879
H          -0.05693332315171    1.67109389705485   -1.16745432035367
O          -0.15728453314365    2.34434661774940    0.41087565832873
H          -0.46484532394134    1.59887612674547    0.94102809782318
H           0.80536734848849    2.37019276992265    0.50948895766995
O           2.46003761347392    1.43129129387369   -0.10432958281185
H           2.15840507303826    0.55436665203664    0.20852577627980
H           3.39486075011557    1.48245533498135    0.09952664873244
O          -2.80496103746791   -1.87586185913640    0.58567671445850
H          -2.11087804419573   -2.54165496621173    0.73316694582055
H          -1.74538246070501   -0.70142106528592    1.11094705927200
H          -2.96175505901556   -1.85276952808321   -0.36224407744986
