    19
        -40.92174057
S          -0.18161452880507    0.21823669014064    0.84893214378078
O          -1.07291417893256    1.20427683735456    0.27503561969493
O          -0.55123257345109   -1.16920914289506    0.35811529721075
O           1.21165453053788    0.47605543034829    0.63089924891700
O          -0.44297320469414    0.14332254692889    2.36890756971536
H          -1.42401912404114    0.24165959847760    2.47980731113892
O           0.26644620462140    1.18184653354828   -2.07660137153972
H           1.12985711103208    1.48453933324451   -1.78327961525897
H          -0.34043250837019    1.35593930915814   -1.33827755702978
O           2.78914252774916   -1.19636922535418   -0.76811700635262
H           3.17690491039658   -1.83747068063693   -0.17010509425400
H           2.36663612410198   -0.51685953200034   -0.20910557595937
O          -2.95025322434757    0.75428937449059    2.08638928777340
H          -3.25902472562030    1.55388401975886    2.52001254462389
H          -2.57471493318202    1.02410081082372    1.22787838054501
O           0.39945388579775   -1.46434044489177   -1.90273957086600
H           0.29197428252255   -0.53940239226586   -2.22828545605150
H           1.35390075000966   -1.54290769063421   -1.67162954080497
H          -0.18879132538071   -1.37159137551774   -0.64783661528759
