    19
        -40.91346195
S           1.48069351518240    0.66709698735387   -1.24709190545169
O           1.36518948600594    2.05222297818816   -0.91233879956262
O           2.31308583549724   -0.07801443447161   -0.21648059097172
O           0.24099636347052   -0.01739592606859   -1.49029927725526
O           2.35854126698497    0.53607762700941   -2.54172315841851
H           3.08440895134579    1.15068796447123   -2.45363635200367
O          -0.78308874168538   -2.11484285773638    0.06889039042085
H          -1.66642567226080   -1.76913870712414    0.29907479711014
H          -0.51936863514014   -1.64424110239717   -0.73377299731368
O          -2.89986946667919   -0.60564519951134    0.95178385282747
H          -3.15301229032398   -0.67427073354286    1.87385893124436
H          -2.41929312042564    0.22843594936697    0.85204052786441
O          -0.90910505088169    1.33432929684620    0.53971179563997
H          -0.70829694240512    0.88782559520465   -0.30239976857948
H          -0.48802572276473    2.19551006822665    0.45900159080042
O           0.70450758501281   -0.61375614812951    1.57841268658577
H           0.11727901961408    0.16405983399821    1.51737180287271
H           0.19006931776063   -1.35121035779166    1.13083487357353
H           1.69171430180695   -0.34773083614848    0.62676159020774
