    19
        -40.92079114
S           0.38523838393933   -1.35842249724248   -0.46231048126855
O           1.12448652182134   -0.11939319146612   -0.66037847022361
O           0.82227793657871   -2.13301240549126    0.67044537179726
O          -1.05837944624048   -1.11468015492785   -0.45294286222131
O           0.67253280579527   -2.21993912736464   -1.75843407851155
H           0.29089888402939   -3.06664545551798   -1.54901785905298
O          -0.02957107254954   -0.67954526332971    2.70638339403121
H           0.47272742830152   -0.93584119628919    3.48213007974768
H           0.23435043839374   -1.29990555451505    1.99261806799916
O           0.27619637083634    1.50966898137435    1.27135789609768
H           0.10831728272139    0.84623326692563    1.98140753590006
H           0.85269603940252    1.03423084841705    0.63925734029009
O          -0.00084148038599    1.62016853923066   -2.26921333319035
H           0.52442883157895    0.90706352185912   -1.83509488087439
H           0.57774775674946    2.38219809811086   -2.33876108495364
O          -1.62823254144506    1.29059623970567   -0.32110409640382
H          -1.53931814878543    0.24153492496419   -0.37004863257856
H          -0.92407287854131    1.51556423659543    0.44818030806931
H          -1.16148311220636    1.58012618893635   -1.17447422465501
