    19
        -40.92071448
S          -0.51201275459010    0.46295421502985    1.31164105466905
O           0.56285838968375    1.11750377034351    0.53950728946573
O          -1.72719419766841    1.24446423679423    1.30183369460503
O          -0.68658344413759   -0.90404781279838    0.87805683768040
O          -0.00304637770663    0.42824512029128    2.80703421169635
H          -0.29990751883162    1.25851177539919    3.16871676778404
O           0.74465214537840   -1.76667520500281   -1.14932670248077
H           0.18645482568474   -1.73122448818998   -0.33841460585418
H           1.64161420386182   -1.54537406390430   -0.82078092322084
O          -2.47060929056635    0.27543532877288   -1.01372565180289
H          -2.35857136592457    0.74911894526763   -0.15577256858167
H          -2.62345092670261   -0.64312281661237   -0.77330480742977
O           2.69557914688399   -0.44835129814497    0.09711515663400
H           1.99341902896959    0.16037824390507    0.40153459352065
H           3.44548214735781    0.09704846386462   -0.14483980240827
O          -0.06671265342333    0.47570868112598   -1.81143994970517
H           0.25728733207211    0.90189069933499   -0.93583601221875
H           0.30616461714096   -0.55121308610039   -1.69101561737037
H          -1.08542331746790    0.41874930234304   -1.67098295331752
