    19
        -40.92136403
S          -0.49746125974514    1.19029306287362   -0.50876817778666
O          -1.24485610492823    2.10944575280755    0.31316722010863
O           0.90566347671572    1.06679236261340   -0.07615059003760
O          -1.10788012187776   -0.11234984555380   -0.65124174783056
O          -0.42565773476715    1.81957067498372   -1.96471114673793
H          -0.46693779548480    2.75987118146386   -1.81508021087451
O           0.30556588367436   -2.23962604828289   -0.06849298650192
H          -0.42226427862838   -1.65019486788108   -0.37246766410977
H           1.01909092170992   -2.04769146233971   -0.71658828186117
O           1.76089635796452   -0.81626697991629   -1.78710812305855
H           1.33370797064991   -0.63699667181787   -2.62648822227047
H           1.58865983487455   -0.03754966864014   -1.22478957492329
O          -1.52608729477678    0.24530874417275    2.15402918775114
H          -2.17179212172464   -0.32506501230617    1.72762411826166
H          -1.49351302385757    1.05806813530036    1.59999796875737
O           0.83093776323277   -0.64720393810281    1.75504716354226
H          -0.09343137911403   -0.37399189886792    2.10087399218134
H           0.66076231954339   -1.47692829072966    1.06051089404043
H           1.04459660568195    0.11451475034242    1.10063619010398
