    19
        -40.91940436
S           0.32315790123376    0.74923611262735    0.68958035200737
O           0.51699277138225    0.93953978000134   -0.75245215206801
O          -1.06892292531795    0.52117351163833    1.01593122595869
O           1.17557562892596   -0.33561782115726    1.18706681612449
O           0.81451487437798    2.04022310793909    1.40432721110735
H           0.39096949084023    2.76188123886791    0.89339414196400
O          -0.22093033921320    3.46290887940104   -0.55414254553109
H           0.36909207575532    4.03519429317074   -1.05029953805600
H          -0.09770603401523    2.55982305161728   -0.90575382425426
O          -1.95993105496455   -1.89273588750713    0.85111237041355
H          -1.74571222014695   -0.91930017196407    0.87756960665372
H          -2.27499838620319   -2.11669222927144    1.72945216207785
O           0.62806774048808   -1.33518050745764   -2.01454711854121
H           1.48588261827053   -1.35358780196696   -2.44414035469411
H           0.53396042231769   -0.42689581575695   -1.62468164546454
O           0.41234209869614   -2.47646563565439    0.23785727568046
H          -0.59625956682025   -2.40040638324506    0.47467583095206
H           0.48739136041476   -2.19109379554228   -0.74733034829775
H           0.82651354374164   -1.62200389555707    0.73238054393184
