    19
        -40.92003344
S          -0.69194149547295   -0.50413043790881    0.20430002917224
O          -0.87863187018476   -1.55724194785208    1.29858101878021
O          -0.29138807747298    0.75890748130685    0.77758428882489
O           0.22029611205136   -0.97917415453257   -0.80511436668571
O          -2.10881098412446   -0.38439939290643   -0.36188037922699
H          -2.21311469691399    0.58444861681263   -0.68476650730517
O          -0.04579033530886    0.91848803504869   -2.67809948654517
H           0.16565718741716    0.18642063766001   -2.06717208892433
H          -0.25990463329751    0.51460976545143   -3.52151984978918
O           2.30785055522402    0.05600996188882    0.80287709424228
H           2.28542117035449   -0.38051143150605   -0.05478528153842
H           1.48791381284204    0.57893928612279    0.83803729454417
O          -1.90790357499403    2.01843963155731   -1.11189367593003
H          -1.38221129413583    2.27531332580351   -0.34466377051356
H          -1.25769961303344    1.82566582074006   -1.82445855411912
O           1.36651851088561   -1.73734539638523    2.48066336810420
H          -0.00178610594348   -1.72555901176395    1.79511372221280
H           1.89029801337203   -1.11788739394876    1.90786539128653
H           1.31522728852819   -1.33099337587319    3.34933175335290
