    19
        -40.91286399
S           0.07900401725519    0.56011079279489    0.15526166151071
O          -0.29454445971175   -0.83121834130172    0.10042320928725
O          -1.05353453446535    1.37896179850666    0.80725905780405
O           1.32737402674251    0.83620593539083    0.79561972581958
O           0.10365560353943    1.12260709873350   -1.27826002145388
H          -0.60122297627536    0.58590854988979   -1.79090078475491
O          -1.38562175964529   -0.61298223797000   -2.35444512276135
H          -1.28123677316273   -1.10237680113094   -1.52248199485581
H          -0.68374236538030   -0.93389573958207   -2.94729183037344
O           1.12735705971100   -0.61958525736978   -3.45794646682899
H           1.40188940384873   -0.24856998138261   -4.29918277753783
H           1.33897011618163    0.03042149624797   -2.77960830195260
O           0.87135517777188   -1.14139668465092    2.58383745172327
H           1.42050358753145   -0.49094250206545    2.11879571596243
H           0.40701387900934   -1.60310962043630    1.87445587296032
O          -0.91883637378657    0.67544210342439    3.26210691369371
H          -1.10815640401994    1.14348839483307    1.79032619655733
H          -0.29749840199282   -0.09234571904241    3.17125223317969
H          -0.45272881215204    1.34327670561407    3.77077925309587
