    19
        -40.92179440
S           0.43985427256930    0.77117171703803    0.37074307165390
O           0.67055717231487    1.08731582847824    1.73954128542769
O           1.12252363463864   -0.57709488794248    0.00930945630917
O          -0.95782696283245    0.67925345231755   -0.00157205470475
O           1.15237305435797    1.75508116401170   -0.55085415651321
H           1.22151690608292    1.31601260278157   -1.47835484850766
O           1.21344637991204    0.42934442065716   -2.70296695699324
H           0.24980913165989    0.23808875420083   -2.82448972009970
H           1.60683323045034   -0.38928385792177   -2.38630316042385
O          -1.38168517024300   -0.00598665903543   -2.53821090758325
H          -2.02923389373704    0.59527370345365   -2.91111454321824
H          -1.35297856088673    0.17982493485895   -1.57725755755576
O          -1.64114167677714   -0.57150619357106    2.29874839258955
H          -1.52673881251937    0.14864713185737    2.92436011062428
H          -1.61018112281441   -0.15533191823417    1.42064194957970
O           0.75542042844871   -1.72696543017661    2.23600024549024
H          -0.20096879470696   -1.49840580865938    2.33291426451405
H           1.04367458579873   -1.16863542979476    0.83630435083896
H           1.22474617831481   -1.10680349435016    2.80256075855705
