    19
        -40.91373490
S           0.70572661668927   -0.09972464491772   -1.50772473643727
O           0.68134807682797    1.20483290889507   -0.90188997647248
O           0.87352869134486   -1.20202285804925   -0.61891759609057
O          -0.50448651195129   -0.30070470706388   -2.40671246236240
O           1.89393102287342   -0.11676206636001   -2.53438114479883
H           1.84032000852734    0.67236623954266   -3.07111353004883
O          -1.65725379907669    0.76577627620411    0.55423611586249
H          -1.32215238194143    0.57308992459482    1.45849275443590
H          -0.91864522866442    1.16428915341806    0.07486572053652
O          -0.39700663690380    0.26273363366981    2.87081782160303
H           0.50367335779928    0.24715440880699    2.47846369694289
H          -0.37906531558274    0.91714859064423    3.57070756336368
O           1.87633926072933    0.33051688783384    1.42924966677266
H           1.61269929086357    0.97497090793657    0.75858509194443
H           1.79872942177336   -0.52078675468001    0.97947841195598
O          -1.98157811510069   -1.42709837522885   -0.77455681650556
H          -2.05313861992505   -0.61514581984863   -0.18831975722226
H          -1.22940430149911   -0.82236143383324   -1.82559760013726
H          -1.34356484697283   -2.00827226148922   -0.34568321337255
