    19
        -40.92343653
S           0.23389959790075   -1.04751268966280    1.30123784921255
O          -1.04583355534664   -0.49052360029327    1.68458169669823
O           0.09236615299372   -2.09342030983864    0.28713562140180
O           1.18637889328224   -0.02718710418802    0.89258508362227
O           0.85217091576842   -1.74556895277822    2.57107379199244
H           0.20777643109346   -2.41607379860192    2.77521669146520
O          -1.92436466566955    0.64007995236262   -0.50455496254678
H          -1.34881420668546    1.43034275827764   -0.43409722007082
H          -1.82145316083600    0.19736102655063    0.37154005713254
O           1.57669273041245    0.46352996264301   -1.70113288681416
H           1.34940691077291    1.39950221966118   -1.67328500196391
H           1.70955011624669    0.20597634576479   -0.76508420461955
O           0.12451817540087    2.27105383735253    0.09358753112160
H           0.54580736050369    1.49071433163480    0.51705119022204
H           0.00007127040678    2.91862856644417    0.78884656653146
O          -0.53558832150778   -0.95066744533136   -1.82718691643190
H           0.32394695119066   -0.40571385372792   -1.97124602525400
H          -0.29326647642270   -1.56969720169734   -1.02038304369171
H          -1.23326510950002   -0.27082404457359   -1.38588580801019
