    19
        -40.92135407
S          -0.97719077580502    1.01254080290297    0.67561879325092
O           0.07081817909083    1.96961563602331    0.39625272897489
O          -1.77729876254170    0.71234031345179   -0.51232246124295
O          -0.49036164989481   -0.20174291992711    1.31098115347829
O          -1.95843322836980    1.68270299585589    1.71402627005915
H          -2.16894139716276    2.51415334754098    1.30043543406054
O           2.18208001343378   -0.43358539592111    1.10759918558649
H           2.60726388182647    0.17919886048556    1.71007392486056
H           1.22827952151924   -0.40564202595885    1.31800043636590
O           1.64120809228490    0.65648363862101   -1.23800610038264
H           1.13865585953897    1.34572861628267   -0.74242638480676
H           2.06543978563944    0.13106627535904   -0.51798933558616
O          -0.56159617292116   -2.39067227255018   -0.17317270161647
H          -0.53095074449602   -1.67852424505720    0.50541467922272
H          -1.41511547844496   -2.81830972868997   -0.08244216042275
O          -0.31960641727934   -0.63859205519534   -2.01314452697115
H          -0.33288691012389   -1.47905534744428   -1.43909997826035
H          -1.01741075316218   -0.03895217248627   -1.53147887433988
H           0.61604696762084   -0.11875432299951   -1.78832007257217
