    19
        -40.91386738
S           0.25346975623727    1.45069644746676   -0.31972131342005
O           1.10501794819519    0.29999916462329   -0.84296527280626
O          -0.39688308672828    2.10362273899691   -1.40841350777553
O          -0.54039298202842    1.02895886619169    0.78840210455148
O           1.33960880102584    2.45327307508516    0.25980107245549
H           1.58960092211141    3.04240397903419   -0.44901133763081
O          -2.23522994742131    0.09354385325397   -1.37113427942413
H          -2.67474852791974    0.32847588690781   -0.55058007230600
H          -1.69117881066488    0.85654670335806   -1.61186929338366
O          -0.36706638571767   -1.56883728057624    1.72025650948577
H          -0.56073644661084   -1.98372584592869    0.85008325190084
H          -0.72659742066674   -0.67259467798116    1.65142652799149
O          -0.68440709926964   -2.10257222635811   -0.88829240877248
H          -1.34935324780827   -1.43883452104574   -1.15122046552683
H           0.13332576088087   -1.83380632895189   -1.31354857036577
O           1.99312270040988   -0.71140545745883    1.24135478304428
H           2.12831858106547    0.00931200392271    1.86169254592959
H           1.13847231724661   -1.18245483090727    1.53227386660172
H           1.54565718768191   -0.17260153963223    0.00146585940797
