    19
        -40.91791175
S          -0.04697538201130    0.80860056325682    1.02425938618341
O           0.98905991711765    1.42441037655457    0.25762050565895
O           0.49970557785426   -0.59989375088677    1.48614731515307
O          -0.54741930930274    1.50142272999621    2.16764927070568
O          -1.22874810477891    0.43016347088506    0.13261561583305
H          -0.91997081908169    0.08578399021369   -0.84630657631955
O           1.14459932440231    1.74160834707455   -2.40858313822263
H           1.29444860197143    1.69869178815292   -1.44578187918465
H           0.81632144951798    2.62345523188600   -2.59253981788564
O           1.35716736078639   -1.94294224812570   -0.79228881764950
H           1.39329035850768   -2.87557146197596   -0.57213681277505
H           1.29535139068169   -1.45453701395874    0.04155228156230
O          -0.41339420356112   -0.37084053147163   -2.06342292657459
H           0.23712207247976   -1.05239950752684   -1.79559578190516
H           0.12946190477536    0.38768763790252   -2.38962872440174
O          -1.74898619574092   -0.79160364784790    2.75692771811998
H          -1.56344064624395    0.15691921569115    2.87815983258228
H          -2.45004960435024   -0.84170425865967    2.10108203411853
H          -0.23754369301923   -0.92925093106012    2.06027050495006
