    19
        -40.91898063
S           0.61342657366334   -0.97373537035341   -1.15831401002705
O           1.43384524310574   -0.54906223862410   -0.01038617336959
O           0.17203052658340   -2.33883266017278   -1.04140344392569
O          -0.45819393806779   -0.01786621636116   -1.38717369465653
O           1.56710784002329   -0.88626064967387   -2.41898009058566
H           1.98675045423256   -1.74055578370062   -2.47671275514425
O          -1.89048530746821   -1.40129527206555    0.36597380495751
H          -1.41734204801882   -2.17821781984430    0.02184057600913
H          -1.76810252350968   -0.75235135387112   -0.35168851709922
O          -0.61275755608825    2.07767509141410    1.65670288266371
H          -1.51431762486300    2.28228074533269    1.40014924710622
H          -0.04411611923171    2.25084648257006    0.85293296115880
O           0.80233293794130    2.14428052789830   -0.53486840820941
H           0.28835612949274    1.45968990456668   -1.01134339435755
H           1.64129512332781    1.71835672788196   -0.33397261388881
O          -0.14011818915029   -0.39102792261481    1.89743554690399
H          -0.94255138595925   -0.84742320865068    1.42996757367576
H           0.63133866608806   -0.48806347878997    1.18120810315231
H          -0.34849879978959    0.63156248431941    1.91863240554339
