    19
        -40.91965226
S           0.67486589837246    0.78368252205209    1.14018990577055
O           1.35720767227435    0.13284917573438    0.01782913819791
O          -0.73047035977483    1.03292798505960    0.78228211838505
O           0.84621819492123    0.10875439796954    2.38790785875348
O           1.31465836935721    2.22356673417839    1.27482150381296
H           0.87230764851335    2.75688849486892    0.61982470365984
O           0.73729752987635    1.07568321105204   -2.31646935525132
H           1.27970447696611    0.68473065005897   -3.00396764201416
H           1.12651470953126    0.78734021095936   -1.45164912745992
O          -1.04045952335882   -1.68788846110982    1.88130078386807
H          -1.83429850918918   -1.15600593130633    1.97095905971626
H          -0.31398883315325   -1.13483730278450    2.23159783771431
O          -0.12887042486291   -1.98448875452565   -0.56924701955949
H          -0.52924311422154   -2.14130069716352    0.32061692394674
H           0.65593263786058   -1.42911031344070   -0.37643468160938
O          -1.38833282104728   -0.00862164297062   -1.36999771190723
H          -1.24991691913697    0.48492200673320   -0.45231612979384
H          -0.70168518373325    0.44483832247309   -1.95743878303846
H          -0.94744145925790   -0.97393059778196   -1.12980937309426
