    19
        -40.92453848
S          -0.40350520978932    1.33285521891050   -0.61923486627387
O           0.94985350198572    1.02805212262897   -1.07065147580361
O          -1.34810576093713    0.33297038596927   -1.10363154398898
O          -0.48123016499544    1.52171925370383    0.81405454614097
O          -0.80895635954696    2.71162301074815   -1.27455773196312
H          -0.75132434550345    2.56452645502307   -2.21407481123452
O          -1.76280455974584   -0.87116771709729    1.16338726777354
H          -1.78525901811075   -0.47800256131064    0.25531649017778
H          -1.70516864137839   -0.10153622141129    1.74155412600127
O           0.55754428486904   -1.84320924106827    1.00817543801696
H           1.13009894432153   -1.01937846279303    1.30658335204875
H          -0.43569111673556   -1.55406411137941    1.16970327722259
O           1.73092852135186    0.33660984842842    1.48270890062263
H           2.23396235529693    0.55050021169068    0.68795929233164
H           0.92731270412527    0.90762899387147    1.40782721852966
O           0.65362881177486   -1.51288052018025   -1.48754893943421
H           0.65227962040540   -1.86043829761080   -0.03288699752754
H          -0.26433334954851   -1.48944659619418   -1.78245066160550
H           0.91076980213469   -0.55636179195428   -1.45223289098786
