    19
        -40.92120604
S          -0.10353346249203   -1.37088302451117   -0.10351285731201
O           1.23588192187241   -0.78575496582998   -0.03535588984023
O          -0.42901924829263   -2.18291655196244    1.03652359068357
O          -1.09551012204877   -0.36744282909443   -0.45407668392995
O          -0.06609107223710   -2.34851281582269   -1.36626041349271
H           0.19607762861496   -3.18933821177788   -1.00368972766529
O           1.25917531050590    1.64339744229925   -0.50178171292104
H           0.83180943962111    1.55236806533764   -1.41694403139955
H           1.39872387782799    0.63128205228258   -0.24713665973250
O          -0.06450143377831    0.83350631741602   -2.54079670846620
H           0.33829636503733    0.16558265971041   -3.09878724164671
H          -0.61560439262151    0.34706464970893   -1.88516114830476
O          -0.14782551825412   -0.08709855626696    2.66500982247625
H          -0.52340689496330   -0.31837887667580    3.51719413942441
H          -0.20484644541109   -0.89104054098816    2.11332197259582
O          -0.74609811212148    1.87349952975806    0.96534129288504
H           0.45980898356708    1.91187546365696    0.15340601768315
H          -1.22919577592574    1.21270957057943    0.43392551277486
H          -0.49414102889698    1.37008062217509    1.76878074618616
