    19
        -40.92079116
S          -0.57494316971993    1.10683302558957    0.80643653386686
O           0.83430761962440    0.84187627113714    0.55222586295327
O          -1.40094223462814    0.70071351270653   -0.33231161102412
O          -1.06004071598259    0.58066242903560    2.05625499965658
O          -0.68879679645848    2.68343625184687    0.88553144929502
H          -1.58285813690343    2.82534496092966    1.18053085420455
O           1.61672039478406    1.20281202397925   -1.92513630516126
H           1.38908149427496    1.26189376828859   -0.96722574033353
H           2.55794303006630    1.02338884295682   -1.97186737064435
O          -1.08233859683973   -2.02055154402328    1.58822104893511
H          -1.17451886690393   -1.06392240283444    1.78853960918486
H          -1.08757088085195   -2.47217042470334    2.43431905704268
O           0.95768460851759   -1.74978890255253   -0.05900077831341
H           1.16377368248546   -0.87041673367639    0.31798910693878
H           0.22748943788903   -2.08495708210458    0.51252809092403
O          -0.15484225097530   -0.64359303928279   -1.99561056233326
H          -0.80979627089796   -0.09552943689163   -1.37764873415746
H           0.55291739071760    0.04925534457583   -2.21684101441872
H           0.31673026180334   -1.27528687497107   -1.27693450662734
