    19
        -40.91167203
S           1.38386029342815    0.22084193046094    0.69557974785239
O           0.93885959119673   -0.95524154400164   -0.17769481152486
O           2.31206479007814    1.02643493400343   -0.03064602053875
O           0.25884124494697    0.88018530053596    1.28184212827390
O           2.13850687364281   -0.49927808350657    1.86924008348294
H           3.00765263829701   -0.74647187266850    1.55917914310849
O          -2.08298749396142   -1.03117803579045   -0.65763656423606
H          -2.14558059519315   -0.99111096941317    0.31736261321766
H          -1.36448637208039   -1.64038043809108   -0.84214141138765
O          -1.83960037664617   -0.65691512456001    2.02280739998740
H          -1.04451024435939   -0.11438993124970    1.87720448359555
H          -2.46587193965680   -0.10094649480593    2.49054643168511
O          -0.97312601525066    1.34490027761787   -1.20027996167958
H          -1.55330048025377    0.55281815163115   -1.11621119304265
H          -0.65250138298134    1.51800430262323   -0.30691321986523
O           1.05969484718021    0.22677203983375   -2.34779261034704
H           0.23225166005637    0.75294006705183   -2.14391244550257
H           1.79868559334459    0.80286439646864   -2.11518431156051
H           0.99154737823093   -0.58984890612156   -1.17534946161781
