    19
        -40.92174073
S           0.53635184305242   -0.70715659916205   -0.12636489071996
O           0.28411212041345   -0.22423024077402    1.29017479207431
O          -0.64755066428824   -1.35462229460932   -0.65077794414402
O           1.04247099153817    0.35896910380662   -0.94009579846075
O           1.64278812704621   -1.76972886268646    0.04865745274180
H           1.18309624358428   -2.58746594050144    0.37173397743250
O          -0.07996776059279   -3.64630441606896    0.54750150319846
H          -0.63838771411148   -2.95623085028644    0.14394180481075
H          -0.09442366608150   -4.40075534700900   -0.04692350321857
O          -1.82612474740201    1.02227356862945   -1.18666423441382
H          -1.20141327598057    1.38308765802219   -1.82130202012920
H          -1.59643447634786    0.08299260908833   -1.09333080371082
O           1.16662251384544    2.90373216417191   -0.07189825277999
H           1.22541472019133    2.03635060278810   -0.51556546353248
H           2.01420237640312    3.05054953391023    0.35118644821774
O          -0.96447637736553    1.90415771677978    1.16558195074267
H          -1.51222221749727    1.70678801374935    0.36941487425964
H          -0.28614036821333    0.70103004403170    1.32475597828543
H          -0.24791767817077    2.49656353587318    0.83997415930851
