    19
        -40.92453850
S           0.60443477877358   -0.97043749212609    1.00776865431596
O          -0.84704996126984   -1.06747504749422    1.11772919903037
O           1.05289143779391   -1.39239816060692   -0.31425307499558
O           1.10246241510773    0.33967281510688    1.37064766803426
O           1.21520575465221   -1.98612332499720    2.05190132669852
H           0.87784462602967   -2.83868203870417    1.79244866639591
O          -1.43275161986251   -0.95049500486608   -1.40422924717116
H          -0.65754686457666   -1.41670526910824   -1.73868418367999
H          -1.37789655671809   -1.08206532007066   -0.42340890444877
O          -1.10948756777216    1.67834057864509    1.12341358602831
H          -0.22096902397314    1.32119951930209    1.36892561718437
H          -1.71397986960980    0.96978911246586    1.37438716343325
O          -0.79677624731769    1.48688141782409   -1.37050606412615
H          -1.15806425646908    0.51561751986971   -1.50985488814274
H          -1.00292401747627    1.69814747030912   -0.36646563654382
O           1.66462836473840    0.96098946744587   -1.23536141399198
H           0.24370587220280    1.38136393106832   -1.41598253385034
H           1.98986493561511    1.35087582065801   -0.41560222904343
H           1.56640781783410    0.00150399742893   -1.01287369329174
