    19
        -40.91983423
S           0.29493612580351    0.65996331105394   -0.55313288634676
O          -0.71098405219337    1.02677538885700    0.41978352889718
O           0.59035766578444   -0.74807880693321   -0.56547774841826
O          -0.12716580031252    1.12591061327500   -1.94530383209835
O           1.57501797417113    1.46075085415132   -0.28886241648608
H           2.15001453743311    0.89113934532486    0.34198440554554
O          -2.58817091427514   -0.72888771283094   -0.43016624047057
H          -2.56914098175607   -1.43352413986370    0.22107333206609
H          -2.06440562752122    0.00072109623561   -0.05647056582870
O           0.45114284301522    0.43448869234867    2.77262899555908
H           0.44156740755228    1.21083667211254    3.33635019086334
H          -0.09275318652236    0.65381230900617    1.99265030880840
O           2.58918650339218   -0.21440826511629    1.30577690214221
H           1.94433283257492   -0.06497378375136    2.03324984662842
H           2.23983359297669   -0.95873789350144    0.80021008199938
O          -1.17520595697466   -1.04806612776450   -2.68123773200194
H          -1.90008635247686   -1.02116054120004   -2.01799070195224
H          -0.57245975619529    0.32560651780467   -2.41384838888055
H          -0.47601683454180   -1.57216751982424   -2.27121707988915
