    19
        -40.91210787
S          -0.43970645074186    0.04288738661920    0.77791996441800
O           0.06443074533372    1.49517032103295    0.65218089170379
O           0.12952009813704   -0.49457558120477    1.97444244910330
O          -1.85378314309300   -0.01267865048619    0.61358323449121
O           0.19528530533183   -0.65087136837883   -0.47130656897274
H           1.15316424473627   -0.74846558166008   -0.27583481313575
O           1.15827498966870   -3.00149330350887    1.17598066077233
H           0.67806769574790   -2.32461324102128    1.66621020863713
H           2.07181448835369   -2.70981585282063    1.13097318217483
O           2.50562534876910   -0.29564920593353    0.75652354095285
H           1.89676890357706   -0.30917464107312    1.51363336731864
H           2.81525530267811    0.60861561860938    0.66683831313214
O          -2.12156156648914    0.10509367374115   -2.04269925797908
H          -2.25863977708822   -0.06277035026062   -1.09168789115752
H          -1.50001894985233   -0.56566812087698   -2.33626565626437
O          -1.00623033157210    2.40672994586062   -1.45446439113213
H          -1.72820695413522    3.00175612601231   -1.23760339246174
H          -0.33326616328343    1.92875966297848   -0.18847965597630
H          -1.42679379560602    1.58676317170867   -1.82994420554614
