    19
        -40.91463213
S           0.67065925872011   -0.34388585606940    1.58665993469735
O           1.39576658100243    0.77964541547155    2.08635110301952
O          -0.77405591987047    0.06640289790286    1.31174132726412
O           1.19274518361617   -1.05354638835588    0.46282125130605
O           0.54065430164515   -1.38670469533308    2.76598661357863
H           0.55449565224583   -0.90429074530890    3.59025629617158
O           0.47261627034509    2.36217544603421    0.07778799235312
H           0.98101501154988    2.02037996548675    0.82838185276279
H          -0.44722129929730    2.33229048454067    0.35052209336516
O          -1.29830946805657   -0.32459965351014   -2.50793196937734
H          -1.82912404595526    0.45996807826337   -2.65196747587528
H          -0.36155012677646   -0.01530816224607   -2.39977863012445
O           1.10914951661537    0.51109504295923   -1.83433385298229
H           1.38675050201191   -0.14403649918387   -1.17910862210391
H           0.97027894726694    1.33181585712326   -1.32809454370744
O          -1.39718506237463   -1.69258535072361   -0.30036973311810
H          -1.48454220917420   -1.22421713542458   -1.18279987000507
H          -1.16066070828665   -0.67484787482066    0.64003934300317
H          -0.52148238515204   -2.09975085695636   -0.31616310032662
