    19
        -40.91940428
S           0.99395707647205    0.35997940860621   -0.15010320894616
O           0.76766939503750   -1.03811359982296    0.23374257040987
O           0.28488122066274    0.70167213034591   -1.36541596454645
O           0.63847373089314    1.26221112757103    0.95014945394308
O           2.52169611157314    0.54389030234013   -0.37655630341810
H           2.76456449001345   -0.21847644409021   -0.94295959600639
O           2.60008905828839   -1.84492420538393   -1.48157589722339
H           3.17848641343341   -2.50184869763570   -1.08682642265781
H           1.78964292316517   -1.82037587600263   -0.93667272152488
O          -2.17362340407792    1.45038296974317   -1.15512866772394
H          -2.21037760982029    2.33701139935031   -1.52025147143659
H          -1.26072484442739    1.10702372653502   -1.36190864451753
O          -1.49161370370725   -1.32979906704769    1.49477900674073
H          -1.26608897629929   -1.69469141672868    2.35309887782744
H          -0.64948581566202   -1.32008053085469    0.96889586620965
O          -1.79522019846730    1.18018388550407    1.32055760607902
H          -2.10697647781872    1.33925964244830    0.34260578737203
H          -1.84856878639601    0.16353320976919    1.46593964346001
H          -0.73678060286017    1.32316203535430    1.24763010595673
