    19
        -40.92079119
S           1.31553567440609   -0.60559589404924    0.33128623703906
O           1.77891707685452   -1.37250803685973   -0.79621689248613
O           1.36285359503664    0.83718385613975    0.08659530294513
O           0.00929890761735   -1.00925806493607    0.83321703030187
O           2.31695862092421   -0.87667550749434    1.52642723302317
H           3.17191384260741   -0.72813238734636    1.13460455025099
O          -1.73520725923961   -0.11926010544663   -0.97565676249071
H          -1.27987820850571   -0.68558602175523   -0.32015589476592
H          -1.18706486580949   -0.21432588529163   -1.78980097533055
O           0.18559788047167   -0.53607768255723   -2.73164244117527
H           0.19878875857275   -1.19419604330129   -3.42916865531145
H           0.85742173558557   -0.82071068885371   -2.07469525356634
O          -1.16197916537734    0.70756762935602    2.43304790472741
H          -1.99872095104351    0.33237387717389    2.71479773615641
H          -0.65453707381184   -0.02394160315283    2.00836752713627
O          -0.86775153944898    1.90544929907585    0.19034056316750
H          -1.35910084258626    1.16204909500505   -0.39612979986033
H          -1.08807069337259    1.64950635449637    1.14750929750082
H           0.13502450707939    1.59213782031416    0.10727327281515
