    19
        -40.91893384
S          -1.68080649757095   -0.24410502335145    0.36514176307447
O          -1.84992793377422    0.11302719352354    1.75076061174262
O          -1.28874864819365    0.84455352422605   -0.50833422659404
O          -0.79075647696870   -1.40289733338192    0.19633573121432
O          -3.10327706844248   -0.72470310929063   -0.15103644337853
H          -3.49014498835914   -1.12014910149288    0.62438784877051
O           0.49322259725778    0.72547839939137   -2.38440019560759
H           0.04884416866313    0.53502223747175   -3.21251846129098
H          -0.22136107270821    0.88596805057918   -1.71497151572758
O           0.42428235510583    1.44401314779786    1.59471212213893
H          -0.38620205728581    0.96114150593048    1.85509685840142
H           0.15554684095087    1.95757714824208    0.82705822921300
O           2.47436922996898   -0.08844847728526    1.01878860158448
H           1.76156462141343    0.55690608665562    1.27389473171184
H           2.58136435883946   -0.67717395128882    1.76855381400382
O           1.36554774548028   -1.19186769213621   -0.96835377433858
H           1.92867412052699   -0.76895094456205   -0.20876542422866
H           0.42193028116936   -1.36469623226763   -0.49264066580858
H           1.15587840392681   -0.44069543874971   -1.63370961488923
