    19
        -40.91930891
S          -0.63743684736281    0.10765247785595   -0.59588366110971
O          -0.16808948307672    0.97682761666518    0.57793777287051
O           0.37057346201361    0.17359370898668   -1.62591960206829
O          -1.00247712234718   -1.18893870353702   -0.12987582103189
O          -1.91136229769397    0.82397583949506   -1.11439315477552
H          -1.60553095075444    1.57230282972395   -1.68872402794845
O          -0.58598590125707    2.39673227195846   -2.70521370953401
H           0.07448956691650    1.71179118422017   -2.49325012492221
H          -0.77639371473288    2.32038757817528   -3.64359895162003
O           2.26229354603116   -0.59188643643006    0.19924513846484
H           2.38085259402513    0.24809683946958    0.64861187551226
H           1.73855062953134   -0.40363426016755   -0.59335382999027
O           0.74362394609810   -2.31427972342434    1.67930690863285
H           0.08543390863232   -2.39328347121981    0.97494501177588
H           1.50007388732047   -1.86964427276388    1.25442481193374
O          -0.59349012137030   -0.32191111473622    2.67684242789007
H          -1.50015098180246   -0.63497706482221    2.62541665388627
H          -0.02067514434757   -1.11920147015806    2.46136927690845
H          -0.35429897788011    0.50639615114451    1.49211301663467
