    19
        -40.92071442
S          -0.53954913565557    0.97833170361037   -0.97383822366058
O           0.15771618500745    1.32486290495915    0.28066921284755
O           0.27416339749254    1.26627057972540   -2.13252968176613
O          -1.03191457819134   -0.37874153604427   -0.92168867889597
O          -1.79244812804620    1.93827907811869   -1.04488723921686
H          -1.45936819854283    2.71748118764585   -1.48091836525877
O          -0.45654613094020   -1.84120355294923    1.18503888781466
H          -0.88509164008860   -1.49462441692558    0.36880783175348
H          -0.79269878175227   -1.24906372391987    1.89042676246514
O           1.56011361998475   -1.00554180918501   -1.94039043685334
H           1.19825747830804   -0.11670829814892   -2.16885966329837
H           0.84660059126251   -1.62147816975723   -2.13136007266566
O          -1.05403193861142    0.40400060332335    2.48992154727063
H          -0.73172178125145    0.88511263231550    3.25343173643743
H          -0.71315890648583    0.87018614025486    1.70081086143234
O           1.64543980602878   -0.68305974296960    0.57795608494677
H           1.18456362285445    0.23358792634398    0.54266224791876
H           0.81823741691443   -1.31696603693259    0.92360243659484
H           1.77143710169434   -0.91072544956169   -0.41885523786703
