    19
        -40.91814220
S          -1.28008643311618    0.94872153907889   -0.75867023145118
O          -0.64016422237529   -0.08344531642257   -1.58457710769361
O          -2.58648324571929    0.57389553044240   -0.30017873996618
O          -0.36493645032989    1.40526177971197    0.28243294299266
O          -1.47417559558794    2.20121226567556   -1.71948161454621
H          -2.36598458589220    2.09264419942979   -2.03562042405969
O           0.63852657892753   -2.35591436391746    1.13871490737820
H          -0.16036931293940   -1.81256583793570    1.37554034246418
H           1.20564307756164   -2.35044903955411    1.91252783813587
O          -1.26808554143661   -0.65412232658144    1.71805194817877
H          -0.84267397663457    0.19635618425346    1.51949098913639
H          -2.07502282977008   -0.61586441555893    1.18595939810302
O           2.20501564702901    1.10511663396087    0.14750089166564
H           2.56716570090558    1.79493187093260   -0.41156204002150
H           1.24801713018867    1.33126381455181    0.28343080592300
O           1.48945216074572   -1.10070237233096   -0.89309498041751
H           0.56616497722169   -0.70566009494852   -1.27043104454717
H           1.93816984852260   -0.27363903140704   -0.49011651636341
H           1.19982709272080   -1.69704100928070   -0.09991735487059
