    19
        -40.92453659
S          -0.86426003414468   -0.65195030002709    1.07256397114830
O          -1.76719218361939    0.03070235908344    0.15342206216875
O          -0.13403985193374   -1.71399026945885    0.38859740499334
O           0.01231003513525    0.26456896187809    1.77105366915685
O          -1.75665951215953   -1.34578562553866    2.17584878588120
H          -2.29452386147671   -1.97175593650264    1.69966994763535
O           1.29223912709251    1.00487496183701   -1.42948593528519
H           0.63504282176105    1.64731312120467   -0.92780941398989
H           0.67003426144303    0.26854365841638   -1.83403008693387
O          -0.42525269090381    2.24709765369800   -0.06564751085240
H          -0.08638562975919    2.29441989045656    0.83582023620912
H          -1.09169795474108    1.51634933866716   -0.02495511423625
O          -0.33796068766320   -0.81798179099807   -2.03554223035175
H          -1.21341549874640   -0.42172656319712   -1.95308565958765
H          -0.23448739173430   -1.32967605122284   -1.19319707444270
O           2.22300898554873   -0.28607290384692    0.52522946383213
H           1.81854826182860    0.51105289122494   -0.67144179017676
H           1.51542441171672   -0.03004798657818    1.16657146816419
H           2.03926740221620   -1.21593541905809    0.34641781676341
