    19
        -40.91990167
S          -0.59710800865280    0.12533551138191    1.38545128380910
O           0.62862907584116    0.77516480128642    0.94832261349822
O          -1.33739351179259   -0.38312093521439    0.20817854076889
O          -0.39392001078980   -0.88694298852880    2.37984355578510
O          -1.50991575161677    1.25564524517318    1.99994097852167
H          -1.38390889899756    2.01627073327225    1.43650584504157
O           1.68223451401362   -1.86244344810395    1.09024608243164
H           2.29658862405286   -1.13108319558363    1.20400053078869
H           0.93602929235594   -1.66478214125672    1.70206486223005
O           1.18945904649901    0.79625859914215   -1.60315737346579
H           0.36687359685429    1.22898780590731   -1.90606818902448
H           1.19095436831138    0.97580616887454   -0.63389039864228
O          -1.39972689904299    1.56033347147097   -1.58151361627531
H          -2.12781904992648    1.45790236900651   -2.19655120134151
H          -1.50112867049992    0.85242652188735   -0.90969554512647
O           0.45493101194548   -1.52642365432253   -1.10784159077952
H           0.86045237666676   -0.59235863808911   -1.47097532924347
H           1.04725891321935   -1.80135795716918   -0.30938358681739
H          -0.40248999750149   -1.19561826837697   -0.63547746220400
