    19
        -40.92221087
S           0.53412478843273   -0.54103291796821    0.73065949778471
O           1.78389695799246   -1.18728005036152    0.47956328056710
O          -0.05492760295448   -0.72612270190825    2.01879127206864
O           0.65193366013719    0.98181612363421    0.48680492916209
O          -0.44894992677031   -0.99912298541857   -0.37825108149157
H          -1.25815272568958   -0.38410310977896   -0.32048871495396
O          -2.28235943069698    0.73213214392967   -0.08622775172120
H          -1.82595411958791    1.56421536815873   -0.23783009315333
H          -2.46279442521251    0.69845760885603    0.88740730078223
O           1.77483554128798   -1.40138339604284   -2.16856922442541
H           0.88526734009222   -1.72724546528378   -2.32701868124615
H           1.92841502599576   -1.52125453512178   -1.21044274404481
O          -2.34236785809352    0.51300153881318    2.53679076538218
H          -1.45016353378469    0.10896374466417    2.50739377853709
H          -2.90586706268272   -0.11561113644797    2.99219337004577
O           1.81089294933390    1.19202557125102   -1.76875086229136
H           2.73350284832319    1.43338851403652   -1.65801294335038
H           1.80897445061741    0.24731872214312   -2.08011383463022
H           1.11969310160363    1.13183695022883   -0.40389826244224
