    19
        -40.91283197
S           1.22309101589794    0.10293925937113    0.88262440941344
O           0.10817125317145    1.00437744042525    1.05469089999303
O           1.03612149313497   -1.11058468900622    1.79118573955902
O           1.54027251847316   -0.26129159910609   -0.45006504078384
O           2.47185364772076    0.79022229954231    1.53390237641058
H           2.19246802527503    1.14328986001714    2.37608774172193
O          -1.67916354673770   -0.61044359187337   -0.30093410636499
H          -1.34447864414528   -0.40430373945853   -1.21194696394235
H          -1.27604484889758    0.06016054074939    0.26740941286168
O          -0.43268202584104    2.60618004784190   -1.11259437863892
H          -1.30380586115099    2.98104531413096   -0.96730631697049
H          -0.19423801112703    2.13438871437778   -0.29816928595632
O          -0.36296347108676    0.19065713407217   -2.44643636921527
H           0.48077714876902   -0.11676410103305   -2.08988731304884
H          -0.37988973446239    1.14464321650942   -2.25348893169403
O          -0.46817713438562   -2.68847636955319    0.59204035785459
H           0.46509398677434   -1.84247301308747    1.30112055027606
H          -1.05792058639938   -3.15031554516673    1.19353276983222
H          -1.01848519498678   -1.97325118879149    0.13823446875299
