    19
        -40.92136406
S          -1.32687400466312   -0.37185374496603   -0.15217057631996
O          -2.40312342468450    0.56778089725908    0.04194623087018
O          -0.41719721365015   -0.02292857595131   -1.22000360580994
O          -0.59113215134310   -0.64456782293356    1.09518004696824
O          -1.98614686422128   -1.75971309488729   -0.55265175434301
H          -2.84213228188046   -1.74136537927754   -0.13407244383281
O           2.14813963375813    0.10861733836303   -0.70184845628307
H           1.28512256136042    0.10783776774721   -1.17565322372316
H           2.21917567598513   -0.82009265342321   -0.38857301201900
O          -0.68196157949659    2.56200493946393   -0.03080674709487
H          -0.47231721720527    2.57664250172857   -0.96887902685865
H          -1.44950241779276    1.95175543754685    0.05285622761502
O           1.32597743742914   -2.27499398144128    0.16078577551641
H           0.59693230349923   -1.81337211570639    0.61650536184829
H           0.91427330035289   -2.82805323608079   -0.50538367365838
O           1.07990515648348    1.22098481055975    1.23757596233803
H           0.42585020301010    0.44394449126655    1.39079623212573
H           1.70068826513967    0.81508014445637    0.43294096903693
H           0.47432262096836    1.92229228135677    0.80145570260423
