    19
        -40.92158998
S           0.40352508273336   -0.80116968538768   -1.17235094782604
O          -0.62822482625943   -1.31213444004704   -0.26033544788157
O          -0.12798328760675   -0.45830409709809   -2.46332262752863
O           1.18341524714507    0.24459365523759   -0.52765444856253
O           1.42239742201269   -1.99462215536983   -1.39368292098881
H           1.03653705401227   -2.50183805224245   -2.10135185504741
O          -0.57123234364370    1.95326196071702    0.53068310903885
H           0.22797633195967    1.63380765417937    0.06708039275616
H          -1.29150207790739    1.80300252415000   -0.12677550760006
O           1.92207872128209   -0.25517370430904    1.93419518263084
H           1.84038120288186   -0.15012127449111    0.95697289603612
H           2.48390823485374    0.45911684976924    2.24148624051354
O          -2.11705758358122    0.90977119862182   -1.33971839771346
H          -2.65155091537187    0.18153830769443   -1.01461317544843
H          -1.44081301969119    0.49820099439608   -1.91263209649188
O          -0.63161583048609   -0.11864653062446    1.91044974497010
H          -0.70950045585921   -0.72915048095246    1.05381025370061
H           0.34862915419894   -0.21385883177039    2.15734231996572
H          -0.69936810073861    0.85172611745002    1.46041728550812
