    19
        -40.92079108
S           0.33732276383164    1.41073194832044    0.32077280300116
O          -0.49758131273017    0.74936034037784    1.32548963551048
O           1.72030400133859    1.48711350379361    0.71513790213233
O           0.12283206819346    0.83564000439584   -0.99994264514347
O          -0.20340717778770    2.89442043390270    0.21528598940885
H           0.05617489888908    3.28296186872034    1.04484485291780
O           0.57942241951379   -1.77373785599932   -0.70403906195206
H           1.27987507528930   -1.73800944456150   -0.01090223974929
H           0.56532853239157   -0.86560744636226   -1.06871304372474
O          -2.33791923926859    0.08799736900263   -1.51493390408569
H          -1.46952704602632    0.54513295966486   -1.41567016609485
H          -2.36597267754554   -0.25411088064951   -2.41076246069572
O           2.31996262488814   -1.05167135369435    1.13864654795075
H           3.27411496785982   -1.13992583648298    1.09797593155073
H           2.13162828369082   -0.08999329212656    1.07851316651409
O          -1.56553215275144   -1.31755624944894    0.48007972810626
H          -1.17645344453041   -0.47337452058532    0.97675775672884
H          -2.08508000951320   -0.89157037441641   -0.28053369191199
H          -0.68549256548105   -1.69780119385938    0.01199288942385
