    19
        -40.91058108
S          -1.30305731344042    0.01621061205367    1.43826809639443
O          -0.58038540391178   -1.18859430436384    1.73964874932348
O          -0.42556328651687    1.23145109876879    1.70821657723241
O          -1.91031278264725    0.09332932370101    0.14942426868266
O          -2.42495058108304    0.18597008631499    2.51795002367231
H          -2.02483800367928   -0.04432975841468    3.35332167494518
O          -0.57653863036130    1.02086654632378   -1.96374101256268
H          -1.11298453711862    1.60957079771916   -2.49722096953909
H          -1.16919432983034    0.62435655601192   -1.29448179727821
O           1.61905749026306   -1.32322325900584    0.25945561133629
H           0.80671677837348   -1.41338436821474    0.79865037054705
H           2.27269295949569   -1.91552113918134    0.63552390944838
O           1.04989931167880   -1.29923749612301   -2.57973530216488
H           0.46081267305064   -0.53675318596345   -2.57729434040609
H           1.27593909548086   -1.46062394047910   -1.65671586891998
O           1.29129589193035    1.31410829194563   -0.07163745075043
H           0.34596178178607    1.33426678562270    0.96402017857081
H           1.65052568001668    0.40301951558213   -0.03037527566886
H           0.75492318748341    1.34851782831337   -0.89327744236743
