    19
        -40.92136453
S          -0.46698760878233    0.82351020513682   -0.47816185632464
O           0.68299897819532    0.82240829907112    0.57000328071910
O          -0.78131127684418   -0.55386428036574   -0.77160326381812
O          -1.56658775046027    1.60886938573833   -0.01712336398557
O           0.18910255425789    1.50347123068614   -1.67484572803558
H           1.12858440444461    1.10883113908823   -1.78549118004026
O           2.46107964115891    0.38128419605282   -1.69702137363594
H           2.76405549910962    0.56140951770158   -0.80245710731448
H           2.18584784708292   -0.56935630448079   -1.70951347645164
O          -2.53981093002024    0.63222422647838    2.27845372835780
H          -2.61942430039615    1.36375419399958    2.89407637218616
H          -2.36206370517100    1.02849404552714    1.40300780405994
O           1.29095203946801   -1.97965976930951   -1.57570074601539
H           0.46089666470869   -1.55984611305679   -1.26205195453290
H           1.06781095166575   -2.45341428554244   -2.37912673048761
O          -0.39873126896489   -0.91501007471801    2.05809080246718
H           0.38803087594665    0.14845135705049    1.27513175018574
H          -1.22039341655515   -0.43517922253502    2.31993265615714
H          -0.66404920842948   -1.51637773796566    1.35440039668342
