    19
        -40.90446708
S          -1.95825785883275    0.21175096932388    1.43799753241057
O          -1.98353245271514    1.37807334003479    0.44847340939494
O          -3.13823091844596    0.19296973957942    2.22031620324205
O          -1.53426672905618   -0.98538390166766    0.77272650419330
O          -0.74949040910884    0.59882808293759    2.40536506592649
H          -1.08285820607376    1.26565591232341    3.00144083353421
O           1.69999593393874   -0.41659150212898   -3.09176421508454
H           1.99177430547800    0.02973474558592   -3.88786318577815
H           0.78292556102502   -0.15525849321045   -2.94276642165098
O           1.88011407186363    0.43794562091464   -0.42735361958171
H           1.77166828814908   -0.27311287270008    0.24000278089948
H           2.27072878383592    0.02437444554668   -1.21039321859279
O           1.09247739055645   -1.41142983688765    1.36600021786186
H           0.14365579673130   -1.42494238047176    1.15263479949364
H           1.15209844422236   -1.03574037504065    2.24670321639754
O          -0.53860206595791    0.39967051623388   -1.34441203288858
H          -1.39877584825505    1.10433088825609   -0.36221877831299
H           0.39500092744438    0.54081349174665   -0.98431310815877
H          -0.79642498480082   -0.48168839036397   -1.04057598327460
