    19
        -40.91287619
S           0.68867882074421   -0.46460910986617    1.58533320327451
O           0.77603666239522    0.86921109110581    0.84376688611610
O          -0.57034963615310   -1.09054633515842    1.28622298481492
O           1.87952371658528   -1.20665092009763    1.37573254420806
O           0.63541429951615   -0.04483252123463    3.10484347948415
H          -0.27801814732830   -0.00645475342561    3.38293284458597
O          -1.64186657174193    1.31978428111275    0.52385850416791
H          -0.21956686978860    1.18790585085166    0.69236875625398
H          -1.90256640971181    0.42189263046976    0.76973527940107
O          -0.41190537655967   -1.23964376974663   -1.49829789887925
H          -0.56255668817603   -1.43435117419982   -0.56399887374759
H           0.55000423104989   -1.10499952692873   -1.59398411822117
O           2.22146243826148   -0.58405511702943   -1.24511204108423
H           2.33302747040669   -0.96873575184570   -0.36196532305112
H           2.35540425636580    0.36010890063513   -1.13659217586434
O          -1.68572184570439    1.01166130814549   -2.05736724386425
H          -1.75656002152904    1.35443478338905   -0.46922024429038
H          -1.12657579259488    1.50932808521412   -2.65555247018165
H          -1.28386452611971    0.11055203850545   -1.98270409311103
