    19
        -40.92008983
S          -0.67473472535432    0.18763085085270    0.40486378172054
O           0.50051206422755   -0.27432591623595    1.08971635893417
O          -1.10466865162752    1.55136688878282    0.95271657594502
O          -0.51764054801682    0.27347107335182   -1.03156927712339
O          -1.86760081517031   -0.71448284911770    0.73393525938726
H          -1.48453674438224   -1.65841731876055    0.88477020971282
O           1.34044646001890    2.22701254655680   -1.24061381879375
H           0.99571266868481    2.90685737471595   -1.82330659965605
H           0.72657346199800    1.47276045141357   -1.30257895018913
O          -0.53627479064191   -2.84617664147915    0.91169202066192
H          -0.35223787764451   -2.91513629573853   -0.05161085032448
H           0.22499180297745   -2.38441573362109    1.28577007372054
O          -0.18496274828002   -2.32891601616871   -1.68503900827104
H          -0.82907723510560   -2.55344971303141   -2.35977066285115
H          -0.22215340199902   -1.36096762763963   -1.57849691112481
O           1.22555157642401    2.38523753970926    1.42349911756943
H           1.53261331937895    1.50150626892912    1.66348869407169
H           1.46926015175772    2.49845151495763    0.47784732326019
H          -0.24177395739643    2.03199359275684    1.24468666331139
