    19
        -40.91749337
S          -1.22642026800159    0.31393513638531   -0.31236223997209
O          -2.40028006960058    0.85026004317958   -0.92581823663338
O          -1.05849024915756    0.90689488425482    1.08525382959905
O          -1.09349164056200   -1.11361751736386   -0.25350579564939
O           0.02013600545852    0.84265737698147   -1.10363373195063
H          -0.20174939889464    1.77494915574764   -1.35703170379402
O           2.34925360180743   -1.27166997913210    1.52689766211496
H           2.13472619074102   -1.41694053104472    0.57596510725941
H           2.86987674480726   -2.02610062967175    1.80753168254934
O          -1.18250509590311    3.05868343978247   -1.72008312844280
H          -1.34210529702911    3.25938557455935   -2.64574697696747
H          -1.92617557449154    2.50275321380550   -1.42038528297110
O           1.46371389016420   -1.62051516374931   -0.96854467466436
H           0.50708405204992   -1.60250300281826   -0.78468797489091
H           1.63398887288108   -0.82027874326643   -1.47179692745027
O          -0.15435278595857   -1.05863461278087    2.35092396854060
H          -0.66589377479074    0.18106482713761    1.71446900092054
H          -0.54881131547116   -1.67979945221077    1.72631488377413
H           0.82149611101033   -1.08052403129370    2.17624052892089
