    19
        -40.92136391
S          -0.64857619793444    0.70644400600801   -1.00180793625528
O          -0.82880111144635    1.04859027104720    0.42005881311760
O           0.01337095352867    1.75526254137317   -1.73719751926381
O          -0.03869468963829   -0.59650957478159   -1.14392159834526
O          -2.12035181518550    0.58469075266178   -1.58530265076682
H          -2.32245668273302    1.46323198047828   -1.89445962434680
O           2.34184815990821    0.94966584042594   -0.80316139940283
H           2.46496763142543    0.14323310119770   -1.31168553452720
H           1.57098936125878    1.40083337327108   -1.21648254609022
O           0.62960569046573   -1.91955786998268    1.01550774879651
H           0.46552957206647   -1.67817276201118    0.07498736578798
H          -0.27759567388424   -1.93008878525020    1.39340455416936
O          -1.92629814445935   -1.23078077784847    1.31692832731486
H          -2.51443079822517   -1.54145881032319    0.62640032403348
H          -1.66881715874516   -0.32402475027737    1.06438873728465
O           1.35055665133092    0.40342748156722    1.48413849376257
H           1.14426106885582   -0.67019993946278    1.40805778747531
H           1.92515151516094    0.63912237285151    0.67015629213689
H           0.43974165824463    0.79629153901462    1.21999035513938
