    19
        -40.91749350
S          -0.63596520852934   -0.81926232217046   -0.79103518064030
O          -1.15476055864245   -1.19893857322262    0.59451324655219
O          -0.98483553135096   -1.83625020364367   -1.73230062982972
O          -1.00887238173417    0.53248787661023   -1.09581182461678
O           0.92396059433507   -0.82219979638343   -0.62884324841986
H           1.19390416392849   -1.77501242421156   -0.67177237180630
O           1.16703384529020    2.02314329433742   -0.50263186837673
H           0.34991506838999    1.61542545907766   -0.84223400511315
H           1.83761175929745    1.34064389243131   -0.58649802323028
O           1.07093853937171   -3.37171016922391   -1.09263048786692
H           1.56123029235152   -3.67488129614178   -1.86100291958718
H           0.16833752210732   -3.16330121629256   -1.39891722092627
O           0.46381813988445    2.23079104373642    2.06564578187804
H           0.45622898109023    3.14958549109998    2.33892605057681
H           0.81994925691999    2.21429130001476    1.14687230342106
O          -1.82783015992049    1.03886942020213    1.50027229855273
H          -1.45511597252918   -0.33761981608911    1.08958602634554
H          -1.00245494040472    1.45729603280770    1.85662343084647
H          -1.94309339963911    1.39664202697857    0.61123864216565
