    19
        -40.91373476
S          -0.61078936914144    1.54024649070272    0.19227536717373
O          -1.32930765025226    0.67761008102295   -0.70721581252998
O          -1.19981129627394    1.47073624152982    1.59284240415599
O           0.80545431847519    1.37729892678646    0.22221345758822
O          -0.92148632800608    3.02047608318459   -0.23027033382823
H          -1.86672399112719    3.11070581253923   -0.34065107467543
O           1.30209057924077   -2.35444427581162   -1.10798362495300
H           1.17188759682075   -3.04642791938271   -1.75814700016866
H           1.28273011525860   -1.50271780229380   -1.59747942920171
O           0.91718733989376    0.07807060341184   -2.19695827255520
H           1.33827917376148    0.62013901291657   -1.51731320257782
H          -0.02870703067517    0.17535397492975   -2.02217090143678
O          -0.65292381537006   -1.68841852693700    0.60726354672097
H           0.07452425212982   -2.04931518433501    0.05260649781974
H          -1.08667310062490   -1.01123200930390    0.07114106146044
O           0.30525880649594   -0.25262900963923    2.53053609239241
H           1.14455082180459    0.03671333452873    2.15565599113749
H          -0.60840604916525    0.76953863038162    2.13466877020140
H          -0.03713436351463   -0.97170447416575    1.91898645315713
