    19
        -40.91289202
S           1.43034639482268    0.66773545392836   -1.63148167669477
O           2.26195967705050    0.85859024381356   -2.76285251355089
O           1.25606209215088   -0.65978788805723   -1.11800612384821
O           1.81137833866239    1.61909371833311   -0.51146019404957
O          -0.03853547748073    1.16663095696958   -2.04201804946254
H           0.11517206176322    1.80582821098825   -2.73314425215300
O           0.62137573176254   -1.69600388855072    1.20736257826107
H           0.84845882810202   -1.40006767373989    0.29682568177877
H           1.23171077779400   -2.40481792644760    1.41722757995954
O          -1.85160233976809    0.89954738560878    0.17749918240220
H          -2.09866446399216   -0.03521108700906    0.33786925834672
H          -1.52131400668402    0.94059416762701   -0.72603575894084
O          -2.11152560223071   -1.70882214081946    0.85234492704313
H          -2.53857208755177   -1.86242255423511    1.69677589880550
H          -1.15642894553154   -1.84053848158210    0.99138119997872
O           0.42250500483818    1.04261963586334    1.46350527651339
H           1.25110481531652    1.40422455071979    0.36961062397800
H          -0.49917924503508    1.10834344661975    1.08672066814277
H           0.56574844558098    0.09446386952573    1.62787568346468
