    19
        -40.91482313
S           0.70997834557483    0.40558079273758   -0.64986718765729
O           0.95788061488505   -0.37821432609403    0.65736811477588
O          -0.13665555717455   -0.33679689064052   -1.52945253944136
O           0.24646581184820    1.71998457738398   -0.29035753715811
O           2.12260757091659    0.47658911747827   -1.26244977792919
H           2.63103973910797    1.08975402769954   -0.67408829167532
O          -1.08589902012993   -2.81919825398522   -0.84352437779238
H          -1.20066166259951   -3.38731785211973   -1.60733240500521
H          -0.58435785732011   -2.04485711892416   -1.14711343099029
O          -2.59735989066540   -0.66800520199447   -0.08095032972463
H          -2.32748325007561   -1.60167036378017   -0.13940798930968
H          -2.15014131087784   -0.24466903564703   -0.82297814496689
O           2.73033570356341    2.16518446563330    0.61982899438537
H           2.77173838455124    1.73535777693945    1.47812514803691
H           1.80085494508842    2.40249416383165    0.46308228346729
O          -1.13089550333555    0.40048587029627    1.81678735642137
H          -1.08548211285896    1.30792577267561    1.49590912899981
H          -1.81957849348122   -0.04343873246882    1.25271391862885
H           0.14761353306735   -0.17918878849786    1.26370708672414
