    19
        -40.91295814
S           0.58977007454156    0.38025638596916   -1.16831814873021
O           1.88263804035809   -0.43938187112838   -1.15721291002983
O          -0.54420611339642   -0.41137216749219   -1.54168525447052
O           0.48351071404762    1.25232432487501   -0.04414367347848
O           0.86119181473165    1.33548230536851   -2.40722011128478
H           0.82518694969801    0.82215486848920   -3.21299269833120
O          -1.34607536208505    0.48838524163667    1.93040999608012
H          -0.82605872578305    1.11669934102233    1.41310749805684
H          -2.10606795310464    0.25625569658800    1.36926516001768
O           0.29203856754253   -1.32910681179095    0.88626424132305
H          -0.25262691248206   -1.91607252853938    0.36035930583891
H          -0.33393946240768   -0.77266666412649    1.41142012136533
O          -2.89866424045222   -0.27811159206599   -0.19231069240646
H          -2.09007301362883   -0.39776026139648   -0.72133201193181
H          -3.52293250450287    0.18793024144589   -0.75013810940406
O           2.59707141702781   -0.02287756460908    1.23581991500483
H           2.07331186880742    0.78888670560396    1.26678181831335
H           2.00290175671076   -0.71923817555274    1.55604401531630
H           2.31302310542911   -0.34178746441733   -0.23411844255301
