    19
        -40.91209420
S           0.91120615968859   -0.44438876301181    1.65695766396898
O           1.68321268487817   -1.59179167242999    1.30585846653819
O           1.21009890261596    0.79360775718984    1.00122450664087
O          -0.57454249063336   -0.75457229409332    1.53299041512413
O           1.11100570674750   -0.19562891627478    3.20670716870962
H           1.23293522795230   -1.04427094767063    3.62858481969370
O           1.94924854176601   -0.59349945170070   -1.23564906225895
H           1.88444806683252    0.20325413440765   -0.69261779024406
H           2.04891129671743   -1.30699829367285   -0.59183745277887
O          -1.42582065140951    1.49645455743502    0.95666885330811
H          -0.52686700469159    1.84858665139929    0.90194063187460
H          -1.06022410712609    0.16698221381716    1.33323806790957
O          -0.39344954576692   -0.70868739990683   -2.52999215717812
H           0.46756247179375   -0.71812220132614   -2.05397341407881
H          -0.17721825798906   -0.58260273772642   -3.45566683189221
O          -2.13866509553607    1.03584162908593   -1.52214276027611
H          -1.47501563414122    0.40763914480560   -1.89292836878068
H          -2.98218417565211    0.58207561709372   -1.56421279182701
H          -1.74464209609901    1.40612097255360    0.01485003553904
