    19
        -40.92008986
S          -0.38240312000223    0.63245264366134    0.32902622709442
O          -0.92690089334447   -0.22140667210390   -0.70535205411314
O          -1.33308876195401    0.64804981399152    1.52936486722184
O           0.94070243314124    0.26252730881028    0.74873544912059
O          -0.39823193686208    2.08666982319213   -0.15021904577262
H           0.53047587417494    2.26804034702405   -0.55696690452066
O          -1.13685950949053   -2.57478789692975    0.60894452894814
H          -1.04836202337167   -1.81405907213189    0.00629056263110
H          -2.04105184345772   -2.88440185968256    0.52506708535505
O           1.92423823782342    2.06036438227903   -1.12609918370282
H           1.69176776970883    1.48358216962886   -1.88756856322381
H           2.24571802942982    1.46156781723388   -0.43983456821998
O           0.73745654724460    0.31846155791131   -2.76669602284560
H           0.20540791633946    0.58298869181745   -3.51998774735075
H           0.11677522385933   -0.01453837084175   -2.09325284774392
O          -0.23527685612996   -1.26150606840163    2.75224933288934
H           0.64314333690373   -1.00506570773595    2.44352208255436
H          -0.99260597973989   -0.07536934830664    2.17861989602398
H          -0.54090444433269   -1.95356956939347    2.12415688532574
