    19
        -40.92453796
S          -1.16519776508029    0.64165749745026    0.74362996749129
O          -0.65245427940359    1.62394862885041   -0.20524001698260
O          -1.69371473750103   -0.52496638848783    0.04609914018867
O          -0.19307538776003    0.28971237557752    1.75720347808030
O          -2.37609046423579    1.31675464071282    1.50050732803552
H          -3.01300510825810    1.51298570466189    0.81957064032162
O           0.22098849607159   -2.17832230703549    0.64819771949700
H           0.41337040226525   -1.85134104837588    1.53466812567650
H          -0.61728022786562   -1.71125379844572    0.40550725834681
O           1.72747797371263   -0.92599573428121   -0.93797532852329
H           1.20013952057770   -1.56208893481967   -0.29521392720372
H           1.97276520091720   -0.09345123687386   -0.35281111906989
O           1.95152368940116    1.10399114119568    0.53924782555723
H           1.24917613176537    0.84273878206793    1.18420734291853
H           1.55088654063030    1.83527715591224    0.05425825682979
O          -0.22187109419661    0.03821262267580   -2.20923648531879
H          -0.95726262269525   -0.56677848648930   -2.05632424929548
H          -0.39617060956229    0.78082174366625   -1.57634061554903
H           0.99979433136052   -0.57190233778636   -1.59995534104834
