    19
        -40.91081099
S           0.98350794873785   -1.42967103844099    0.46864056772344
O           1.09676925765177   -1.30688270224165    1.98628447401037
O          -0.41227317976736   -1.45019828767330    0.11117683722343
O           1.79421299065705   -0.49258672882112   -0.22564960694767
O           1.57494038530878   -2.86072408619255    0.21895219658262
H           1.00903576033623   -3.49447556462345    0.65624180081684
O           0.71963657666417    1.92011066506321    0.53994453667247
H           0.11831072331469    2.15643863638003   -0.20107132369569
H           1.30458771638982    1.23000677306595    0.19334044174195
O          -1.29220250080368   -0.36194778237551   -2.19005508508483
H          -0.92246635263064   -0.78834009886508   -1.39495365125803
H          -2.20466863499851   -0.65131123004630   -2.25213434234202
O          -0.84790444401295    2.24225452905404   -1.62304881637703
H          -1.03163200147699    1.31362611929011   -1.87771873650850
H          -0.35170095792534    2.62366983609979   -2.34913433101452
O          -0.56665545969500    0.51324656369938    2.26453503817246
H           0.42108795796321   -0.54226589512069    2.25088146337502
H          -0.10066162561815    1.20410533411347    1.69345541985923
H          -1.29192415010038    0.17494494763760    1.73031312703081
