    19
        -40.91865334
S          -0.52588642899962   -0.70306788258271   -0.48365826694094
O          -0.97493087125673   -0.94542759516095    0.86743937048293
O          -0.69431680399878    0.78794629377392   -0.78363243416267
O           0.80700321869330   -1.11655083643438   -0.78855728998080
O          -1.50486721866714   -1.41243202675768   -1.45291550938958
H          -2.41080339024778   -1.33322426198305   -1.05725887491400
O          -3.52969493729022   -1.17309961135575    0.16414073959702
H          -3.92956623474758   -1.98812214330937    0.47812130123614
H          -2.77554430509030   -0.98333307227709    0.75094134494278
O           1.50789741443959   -0.32521454713051    1.82335588663315
H           1.93596374566403   -0.95068484454260    1.23116688230992
H           0.56017052798006   -0.50535162239644    1.72892899816089
O           2.26185451658035    2.02795067276464    0.74179179180195
H           2.05096588932889    1.19928799093392    1.22518882346998
H           1.74658400683974    2.72175223722673    1.15654014686016
O           1.54315133775548    1.37693237035088   -1.71318854618425
H           0.17356871316118    1.13740297813054   -1.25205360968872
H           1.93964126704632    1.73300131872258   -0.87678303876338
H           1.81880955264598    0.45223456201316   -1.75956770544439
