    19
        -40.92136389
S          -0.69911074696322    1.12255109756638   -0.41828764343648
O           0.34368385973507    1.20852906023688    0.61928876304425
O          -0.33684488113999    1.83497206425638   -1.61836233403662
O          -1.09456446903566   -0.25064277717706   -0.63730549105816
O          -1.95890738367803    1.86383937562109    0.20200035994413
H          -1.85731993706518    2.76945900132551   -0.07689118448514
O           1.18078086674213   -0.18468112848005   -2.36764476903960
H           0.50881700051137   -0.82261177940820   -2.62366411489589
H           0.69627813217767    0.66146768949804   -2.23416582866828
O           0.11146117219886   -2.14206312683634    0.71520252078437
H          -0.12708107111758   -1.78120043356951    1.59781856620116
H          -0.50674550921361   -1.66436012892765    0.11574746666698
O          -0.73563308106897   -0.36337274777312    2.50813875091166
H          -0.33198090328681    0.32895055959592    1.95117692389077
H          -1.67928470225484   -0.19440725356885    2.49885178470958
O           1.94707817004924   -0.62851719823840    0.02595023929983
H           1.81514282276215   -0.54487144225021   -0.98578589062669
H           1.46011654211809    0.20644105190968    0.37181366781319
H           1.26411412850456   -1.41948187379459    0.35611822294866
