    19
        -40.91892654
S          -0.55042036624746    0.47171072603543   -1.23755027478507
O          -0.72282197469315    1.25313424483973    0.00158734152313
O           0.56057219547616    0.96713225035030   -2.02124239190686
O          -0.50581178534020   -0.94142245707064   -0.95474986311109
O          -1.86369765757229    0.72765467405019   -2.08057143670412
H          -1.73583132269654    1.59046111254141   -2.46388605466399
O           0.13956310862750   -1.86434105512748    1.55417641016829
H           0.18818181441070   -2.02191072354236    0.59786336627543
H          -0.81254236792321   -1.66204837417635    1.69962584600938
O          -2.28108398018192   -0.83963305613853    1.07769798814072
H          -2.27789848118417    0.11434842859860    1.19954940297218
H          -1.91769312754221   -0.97518983432085    0.18664069617715
O           2.61380129658327    0.38825643065480   -0.53904686927371
H           3.28562754669792    1.05571776549202   -0.69467978588015
H           1.89705510718906    0.55337028191571   -1.20402042591070
O           1.08928268894618    0.44816455351025    1.49272279066768
H           0.29637744258571    0.88297532122561    0.95599229433790
H           0.76231365447082   -0.55669625231474    1.63736816318481
H           1.83502620855998    0.40831596356296    0.79252281281874
