    19
        -40.92246924
S           0.30541874199253   -0.38490094249382   -0.95080522275040
O           1.20182154007984    0.73276060610989   -1.13395895858072
O           0.75299587580798   -1.37832344577506   -0.02210664022595
O          -1.07123238224970    0.14211296839235   -0.55394236723354
O           0.03042068428513   -1.05216687154201   -2.31592688874212
H          -0.21181848580181   -0.29576852670890   -2.90685647484020
O           1.54601326737575    1.08002584618518    1.52150539124873
H           2.00646572600183    0.27543446945206    1.77262431126462
H           1.58244286543867    1.11626953044237    0.55031915708942
O          -0.43693843846429    1.35753044683137   -3.17421310341354
H           0.30460917970792    1.54031276650895   -2.57440896392128
H          -1.23364341729797    1.64317441201444   -2.71824101149215
O          -0.48148296466770   -1.93032073085266    2.30198210680795
H          -1.07884492514414   -2.67005865939812    2.17976086417241
H           0.06311975830407   -1.87728223280753    1.49367567657939
O          -1.04039376525368    0.62379842254409    1.86259724504099
H          -0.98333888647563   -0.28916732581086    2.23199686840652
H          -0.11972320193235    0.97761323727933    1.92088347853043
H          -1.13589116259239    0.38895602098903    0.51511453165961
