    19
        -40.92161556
S           0.73916194482191    0.51073930977274    0.57276391567009
O           0.82465268875391   -0.59769511060191    1.49525244881479
O           0.93023167261240   -0.01796532092659   -0.84860160808809
O          -0.45706169326064    1.29089355787290    0.67332290244372
O           1.96490425860629    1.42903262154620    0.75935813861333
H           2.73788642774133    0.81019266442454    0.73447231574959
O          -2.20129809898118    1.56931115238621   -1.36587795909530
H          -2.98909151895591    2.04820802580760   -1.10350795453038
H          -1.56801813064809    1.64172052787825   -0.62826284287798
O          -1.73015900806995   -1.31326478916644    0.97838706519281
H          -0.82105315649916   -1.26508958847483    1.31881779102374
H          -2.16681910052120   -0.52437059479137    1.30967152957230
O           3.37527710380160   -0.75050843129185    0.62972230781825
H           3.26554941718884   -1.06452654009999   -0.27234930943275
H           2.61552916438174   -1.08480507394462    1.13298430444780
O          -1.24536185322453   -0.91613684897457   -1.61243863500698
H          -1.73170185580462   -0.08046480031001   -1.77148366624308
H           0.02140234085900   -0.43576516420398   -1.26156326588300
H          -1.56403061279422   -1.24950559689374   -0.74066749816318
