    19
        -40.92139829
S          -0.33421596460859    0.39058247455173    1.09699686339875
O          -1.40992589301357    0.46963241436264    0.11017441377721
O           0.28046872484505   -0.93309746341206    1.07058449742198
O           0.65149942478237    1.44967430866048    0.89530265697700
O          -0.94981901274112    0.62201899190868    2.50662791914407
H          -1.59350542243588   -0.11170469983630    2.58404708420684
O          -2.28951965104872   -1.52468897924378    1.77301325739517
H          -2.51190685358621   -1.01034039639870    0.98597247204094
H          -1.40687655524280   -1.87804067353311    1.59717964524391
O          -0.48592008147688    0.84566198229727   -2.27236236235780
H          -0.92111430146935    0.65734673711068   -1.39442596372528
H          -0.94591163384129    1.60552248010022   -2.63541442283203
O           2.19686843004361   -1.26152942741142   -0.65118246490225
H           1.86819230789401   -1.92979515586550   -1.25668691083720
H           1.54466461117856   -1.21771958562875    0.09711365482244
O           1.81181908711957    1.15744734282267   -1.26189625694107
H           0.95105704666283    1.08382528488539   -1.82656924105611
H           1.41591750678952    1.40188288857888   -0.30494243173354
H           2.12822822015352    0.18332148605473   -1.11353242005698
