    19
        -40.92136407
S          -0.85846338382880    1.05553078624482   -0.26801407919850
O          -0.68143743556920   -0.12139824115572   -1.08850294782043
O          -2.15385403213840    1.15422292437642    0.35746201580955
O           0.24248332701851    1.18817976086493    0.70253167462274
O          -0.70975061007010    2.30797924871429   -1.23257612156763
H          -1.24633323402840    2.98190001318983   -0.82484722289471
O           1.37561026445712   -1.67976980850727   -0.63506827433398
H           0.56728614925342   -1.28488030038976   -1.03508648974019
H           2.04751981966329   -0.97646974816020   -0.77545847211029
O          -1.97146039935434   -1.35390143601559    1.14444941483987
H          -2.19354728894705   -0.41214315216874    0.96453745433535
H          -2.10638257121133   -1.80909439812880    0.30860209487775
O           2.34568971755377    0.78599291136966   -0.91667518655503
H           2.13356990807495    1.21026574745516   -1.74989312737352
H           1.66602547599874    1.08222475834639   -0.28219308205222
O           0.52429928466186   -1.12770877191958    1.62532512641481
H           0.98292628639707   -1.50883519776846    0.70739362354524
H           0.50426489086756   -0.11969436856782    1.42975676940498
H          -0.46844618878341   -1.37240072783495    1.56825684981411
