    19
        -40.91286396
S          -0.01820966864962    0.40532058690533    0.42679672810146
O           1.27469791752313    0.89434909951055    1.11082887846665
O           0.26986616150356   -0.74412677880023   -0.39441500894824
O          -1.05699596097948    0.22569239220186    1.39276384409447
O          -0.37056248301752    1.59222844662571   -0.48935173713288
H           0.16712150648005    1.43916988406887   -1.34675786777574
O           0.74421674380745    0.74203870585233   -2.59254377250595
H          -0.09167171834958    0.69279505401257   -3.08816672473851
H           0.82406540759832   -0.09878651496380   -2.11376437825289
O          -0.26078445578739   -2.32725748314367    1.80298573666285
H          -0.87987999617146   -1.58344437087087    1.86798851548632
H          -0.00701096898808   -2.33761534546033    0.87149294235086
O          -1.96159019276229    1.05050718342037   -2.94049739663098
H          -2.43697217886800    1.74626945440037   -3.39924579522509
H          -1.97338401987852    1.27007752746025   -2.00288055091884
O           1.72263382134048   -0.93162322873133    2.84438082770758
H           1.06350850145330   -1.60555952510794    2.53592533429542
H           1.56094647662718    0.21275926177272    1.80238802142680
H           1.43000511669629   -0.64279434916374    3.71207240389555
