    19
        -40.92079117
S           0.69861702064477    0.24841912725662   -1.28777856607684
O          -0.75917242674278    0.17100000900429   -1.40191571645622
O           1.09673259532490    0.71353011273809    0.03364491044204
O           1.35113584192422   -0.96422598956877   -1.70954001217170
O           1.15168630132143    1.39442246956081   -2.28101154143828
H           1.00094876447456    1.01275154292054   -3.14009272976416
O           0.22873275137252   -2.77782045396730   -0.14881964395803
H           0.61627916594312   -2.16393496728834   -0.80978397957677
H           0.80542224903698   -3.54383401387571   -0.12570354921516
O          -0.47724951482330    2.50816725244552    1.12104593868291
H          -0.11087050843761    2.75036665926045    1.97391549326795
H           0.22305764094834    1.99892206646155    0.64871564135598
O          -1.90966713222104    0.41497475937994    0.77587546623505
H          -1.55664652107861    1.33834672932803    1.00548642436806
H          -1.56151631673596    0.28829280528945   -0.21115344517321
O          -0.07333801446321   -0.96633066407619    1.74153026503308
H          -1.26210610100422   -0.24798188625314    1.30342727868045
H          -0.04639718581215   -1.79121604039904    1.20178821435419
H           0.58435137961541   -0.38384951873043    1.31036954130906
