    19
        -40.91451139
S           1.02036557105438   -1.09754482180822   -0.37415267360576
O           0.17876179927601   -0.73320792952302   -1.58351443663872
O           2.14273229855551   -0.21946563730067   -0.26856280272073
O           0.19579659979937   -1.26449529495872    0.78345650026536
O           1.58145960247342   -2.53106590038401   -0.73333837155720
H           2.31995357687394   -2.42274197154199   -1.32978161732470
O          -2.28956451384935    1.54756769204815   -0.37478554240838
H          -1.34640446098581    1.72302217104776   -0.15434691380395
H          -2.48965100738666    2.08920861219559   -1.14003501133969
O           0.31917204790719    1.85859892647472    0.12148154328717
H           0.48422814340890    1.71891900807256    1.07468824010064
H           1.01588470367536    1.36200142959649   -0.32057890582360
O           1.14647556488666    0.71294212002990    2.43520571776578
H           0.72891499004213   -0.08658518389361    2.08064231479811
H           2.07592661364046    0.64759006875639    2.20257245847883
O          -2.10058654983908   -1.02393480293187   -0.69734276010143
H          -0.85288589956467   -0.88972142083768   -1.31646976895248
H          -1.79323832684296   -1.33180795238112    0.16628655743168
H          -2.33734076310289   -0.05927911359789   -0.57142453718568
