    19
        -40.90733240
S           0.57351834378609   -0.49728946819640    1.72197131865393
O           0.19881340266754   -1.83564729710427    1.07912997205442
O           1.92305612849235   -0.16296779789841    1.40159211924286
O          -0.44692856543375    0.46907673880774    1.47354350741581
O           0.53105153231561   -0.83243533536419    3.26606949049162
H           1.38435985667352   -1.19619419118662    3.49339550689486
O          -1.18071636529862    0.54513382041265   -1.13749251215931
H          -1.05546540953849    0.89727198968122   -0.24258420597746
H          -0.30186311054372    0.15763882981254   -1.35716484369844
O           0.65118966463699    2.43754637456817   -2.32634611884632
H          -0.20362110804395    2.08411921431706   -2.04128215802588
H           0.60781565016637    2.52401314969394   -3.28007497547954
O           1.40802646415097   -0.05630567951773   -1.29048228706840
H           1.57900381614801    0.84349850345445   -1.61258866977087
H           1.78727602808085   -0.10966972702920   -0.40239150113824
O          -2.13932278841414   -1.53597568778944    0.17098672980651
H          -0.76095546373331   -1.80605290083347    0.70423273011630
H          -2.62480106238558   -1.09661182741369    0.87435030316545
H          -1.93043701376813   -0.82914871840548   -0.49486439556700
