    19
        -40.91322281
S          -0.40300692496249   -0.78776178328575   -1.36460638174259
O          -0.02996117624216    0.56132594196549   -1.67523116278875
O           0.76667195032297   -1.74338431725545   -1.55947709229827
O          -1.02605034677654   -1.00235629794482   -0.09667030236987
O          -1.41153949892192   -1.26293481728304   -2.47318912024986
H          -1.07597774219790   -0.99581768413220   -3.32761653928964
O           0.05552957217004    2.01592287496408    2.16745145074832
H          -0.69965025554835    2.00910764188411    1.54065967119226
H          -0.28573162567978    1.71006742852734    3.00885446804931
O          -1.80703041819193    1.59332294479553    0.26312097601604
H          -1.32664513526738    1.82072694105907   -0.54005609923303
H          -1.76840040160908    0.62613311451067    0.30545090437034
O           1.66456895919955    0.57887548168702    0.55204074365143
H           1.26374756021301    0.79370707191261   -0.29865431370378
H           1.20688298420536    1.14108707690914    1.21401775638303
O           1.45223594214898   -1.99457231837614    0.81206887434544
H           0.57492416135341   -2.06231546939477    1.20505779530833
H           1.14989403132854   -1.97184508620579   -0.60170943471636
H           1.69953836499258   -1.02928874509055    0.86848778538254
