    19
        -40.91793108
S          -1.43800090313517    0.92459998662073   -0.40741853762706
O          -1.85210300470908    0.75343662780348   -1.78093343838413
O          -1.59833975979314   -0.31365078698585    0.37230216671899
O          -0.10072725809862    1.46219100206324   -0.26473758063248
O          -2.41553859705360    1.97501720137565    0.25685973203119
H          -3.28805137561696    1.67061572135883    0.02223919745055
O           0.49794137263711   -0.25714012934834   -2.34739162735063
H          -0.42845009547649    0.06855382476131   -2.41126503898007
H           0.96467089654604    0.47274327699418   -1.92347076664937
O           1.89129027651564   -1.50823319797915    1.30485202156472
H           1.73901621724775   -2.04666902372944    2.08408339624503
H           1.69190922276431   -0.56981942254283    1.57416186134388
O           1.20729146282554    0.93553495608038    1.93372732764941
H           1.86791612931376    1.62870001577084    1.98752737677486
H           0.63670433479906    1.16815632987920    1.16285237129525
O           0.09712192085716   -1.89525240201643   -0.44902635102799
H          -0.70064567214310   -1.30027487041088   -0.05018274379606
H           0.35677339020342   -1.36793744197662   -1.29593021488371
H           0.87122141228976   -1.80057168760979    0.23175084822677
