    19
        -40.92136406
S           1.00298434507498    0.93499443425506    0.20593200535117
O           0.25264876914720    0.25604077428213    1.23831229795478
O           2.39733677613459    0.57230608824356    0.14963628836590
O           0.33675939766634    0.79928699075537   -1.10145921456137
O           0.93746531587234    2.48540056994861    0.54211950248335
H           1.74554413378448    2.83703831958592    0.17936988881288
O           1.74482630918645   -1.97829966632570    0.26252596423063
H           1.48184967237435   -2.05066768767620    1.18429338819516
H           2.16417938470067   -1.09160889448647    0.18220310336516
O          -2.17964931319445    1.42803337002187   -0.40871110585853
H          -2.11643515809226    2.13006603948697    0.24115173104179
H          -1.28467796495053    1.32639335726941   -0.78400144441482
O          -1.92749707276214   -1.03654767732914    0.57288077344866
H          -1.20094986274216   -0.62956044193211    1.09802624565846
H          -2.37683719932374   -0.25168942829773    0.18838529513982
O          -0.30896269524576   -1.62245067309336   -1.20942278938346
H           0.50401706947422   -1.95922861126007   -0.68565305426884
H          -1.11408882145169   -1.50864234546899   -0.47679547679166
H          -0.05851309619516   -0.64086451768550   -1.37879339868835
