    19
        -40.92136406
S           0.85344650188937   -0.27349589714414   -1.05774549171364
O           0.97650589038427   -1.60115690781636   -1.60661863480615
O          -0.47212513606548    0.29346632016278   -1.16294912571381
O           1.34939237939322   -0.19300760816470    0.32760943935657
O           1.81828577172556    0.66871523184607   -1.89580432993880
H           2.51336905994363    0.08761679068856   -2.19151359512261
O          -1.20504540235655   -2.33901545527575   -0.32601890111354
H          -0.37161442275739   -2.25023622070810   -0.84192276796949
H          -1.87459236382446   -1.88932867051902   -0.84909540963188
O           0.75935154231667    2.36587962543502    0.88549600586986
H           0.92764534984543    2.86588928680399    0.08497843835749
H           1.13833685474469    1.47942985081553    0.73477800098891
O          -1.63479854830712    1.20086116881165    1.00323227739972
H          -0.92671515836085    1.84868081605904    1.21436804700417
H          -1.44511161187406    0.97713711096200    0.06345144604258
O          -0.60235925497425   -0.93541658155394    1.71787968271270
H          -0.95558952403084   -1.60806612527011    1.03109428343382
H           0.31177031573608   -0.68858205720251    1.31997165916792
H          -1.16015224407230   -0.00937067816524    1.54880898575691
