    19
        -40.92136391
S          -0.36838759736502   -0.97160829338873   -0.91770974496617
O           0.33702681679799   -2.22504674597602   -1.01820930929235
O          -1.06948891347266   -0.82640634622112    0.37037546372455
O           0.44310180838426    0.19199347608647   -1.19535443783980
O          -1.51891843313851   -0.99489473219313   -2.01164819102637
H          -1.72920472229528   -1.91927115448161   -2.10959814860874
O           2.30346413392309   -1.24020046014669    0.43395202628947
H           1.66006530966526   -1.77459919566283   -0.08469181712364
H           2.71175579336065   -0.64799640812088   -0.20377392211274
O          -2.05063374985768    1.65677776959890    0.09032502703765
H          -2.31848058201498    1.74428929332381   -0.82601393077215
H          -1.86212601691795    0.70923201323457    0.22715229149766
O           0.52903659869033    2.12519949042686    0.57166950209679
H           0.66020961921275    1.59698862005303   -0.24874016884657
H          -0.43972364375914    2.28912152614907    0.56621733855800
O           0.68927486238525    0.05613983196835    1.92593686700467
H          -0.12626729545422   -0.36985170912519    1.46899545239369
H           1.46350625848573   -0.45171310895471    1.48864368097255
H           0.68578974278828    1.05184613342451    1.47247199094144
