    19
        -40.91790599
S           0.04393395881966    0.84611091239341    0.58026445246386
O          -0.22722759731094    1.80254901498470   -0.45411039990243
O          -0.84009301305402   -0.29118076921820    0.59577413122071
O           1.49199048382075    0.39675832122724    0.51672696995220
O          -0.02205951866124    1.55068859902829    1.97121278000718
H          -0.94201017512873    1.88276935661830    2.03400367514565
O          -0.09617732559079   -2.16409854713827   -1.25483876218700
H           0.23374365937236   -1.50515285538737   -1.89344877320996
H          -0.70400607490757   -1.66502319295560   -0.68856157358931
O           0.81454886353587    0.15515721404806   -2.36575097959785
H           0.37964522517768    0.85601589462301   -1.85569910167245
H           1.75755211078485    0.31595779350929   -2.29050186085977
O          -2.49411672101887    1.91728675489223    1.16455382390865
H          -2.18705880349164    2.30996016346644    0.33926655670818
H          -2.59847719878743    0.97553743448161    0.98901864558525
O           1.62213310680795   -2.08887873010207    0.67441797728335
H           1.61230812061852   -0.64879189244409    0.62933487723754
H           1.10908902583917   -2.36430141594698    1.43848706336609
H           1.04628185346735   -2.28136407598055   -0.13014950299291
