    19
        -40.90831894
S          -1.26117414089978   -1.34214096189292    0.96126703105008
O          -1.01912134324851   -0.69639250606413    2.21209002432151
O          -2.38054804910460   -0.61628861666747    0.18886555662511
O          -0.14051783779964   -1.56095125587650    0.10399225350309
O          -1.93351309425692   -2.72863203430626    1.25454309147142
H          -2.50678970019971   -2.61889718080555    2.01136406781969
O           2.28200389729597   -0.10580940644110    0.16613294055929
H           2.32685940619025    0.24790423388400   -0.73844077219078
H           1.68243634322799   -0.86254351474453    0.13607490115964
O           1.86270380718630    1.33751792362508   -2.19129107857447
H           2.30288013444818    2.18193745049547   -2.07774669873443
H           0.91335979050919    1.51238180703728   -2.18305779070242
O           0.28519486068648    1.42689981296775    1.03626949677763
H          -0.15537975501568    0.87631697422050    1.69785356613729
H           1.16055419324317    0.99840715129761    0.88447637676007
O          -0.80846299293487    0.77050760808286   -1.21660030199242
H          -0.28438220541232   -0.02292241713937   -1.38590575742773
H          -1.92204352391433    0.01911686289680   -0.46664076024656
H          -0.40405980009540    1.18358805940237   -0.39324615583963
