    19
        -40.91419844
S          -1.12803390537507    0.10102770696928   -0.53279128471935
O          -0.69154907230206   -1.06602006435705   -1.22260817994053
O          -0.79445884130214    1.33595874026642   -1.43020954324748
O          -2.47948789409144    0.17020443378099   -0.08085534849882
O          -0.20900566672955    0.34147745755536    0.69780870741850
H           0.75132868968534    0.40687098384934    0.28602983480741
O           1.98191837234917    0.36771595872044   -0.50024118555837
H           1.76417790766461    0.72485249555372   -1.36530973156975
H           2.07121457019995   -0.63129744703234   -0.62010679810674
O           0.92534899793813   -1.98855883665180    1.90934598821436
H           0.34250825487172   -1.24928513907565    1.69317599555750
H           1.55205333423903   -1.66785664400616    2.56109579163970
O           1.74913416022196   -2.19493382496206   -0.71038561790824
H           0.87049822945890   -2.10348269447909   -1.11148912627563
H           1.57457419160068   -2.41800254464660    0.22117888078659
O          -2.30503215538922    2.80706692668052    0.09358974997938
H          -2.73432013587852    1.93685644810939    0.18591361685183
H          -1.95096981177961    3.03419318368945    0.95678626390522
H          -1.28989924539318    2.09321287005964   -1.03092801333554
