    19
        -40.92071443
S          -1.34966238321435   -0.36952375746793    0.48885438971698
O          -1.07376102990393    0.57208461536420   -0.61451146482355
O          -1.90502907090870   -1.61176381519447    0.00304723530547
O          -0.17960323073524   -0.53231470005071    1.32041790411350
O          -2.46814542939228    0.31860727928706    1.36750408973065
H          -3.28314237244102    0.03367760523679    0.96393877126049
O           0.38222262887221    2.70487866111769    0.11234437968582
H           0.28627377402315    3.39421954592678   -0.54645106115409
H          -0.27893068484831    2.01749367924178   -0.10361042642002
O           2.04167598694833    0.67980978221195    0.60914716739035
H           1.70856156410612    1.59889536843301    0.53506177327415
H           1.34597043969130    0.22374188783062    1.13633700294821
O           0.45931069132688   -2.58590625097821   -0.55669513614990
H          -0.49854927133779   -2.39282336147304   -0.42145900661678
H           0.82523620127475   -2.66357292450107    0.32934275262420
O           1.12414423402409   -0.30924730890253   -1.46645223637339
H           0.97985987176891   -1.29979799466741   -1.22266229089231
H           0.19621592485352    0.09931653816997   -1.30556812299033
H           1.68735216587598    0.12222512053649   -0.62858571072602
