    19
        -40.90722501
S          -1.32662361103556    0.07096729175807   -1.91120432616574
O          -2.11530155233588    0.45992153608591   -3.02250816651629
O          -0.86175765912390   -1.37633619557842   -2.05747327597167
O          -0.23662826882230    0.89603742881164   -1.49689222453305
O          -2.31863784486020   -0.01466545231241   -0.64778391377727
H          -3.18045749350852   -0.16874511680695   -1.02752283992662
O           2.54692271410891   -0.03166253012312    1.31133768475045
H           3.39343241407645   -0.22379526134026    1.71781639956381
H           1.86524966039893   -0.23047363531652    1.96260808240816
O           0.64159590383196    2.02783985304026    0.79164629106343
H           1.54991476412947    1.70306397883034    0.80726839347953
H           0.31979839007003    1.84244915679000   -0.10682959647921
O          -0.60667999617573   -0.12863942585435    1.70537127874297
H          -0.19164452916324    0.74670966376150    1.49713002088139
H          -1.48541141867524   -0.08099375637127    1.31928062706822
O           0.63554807113481   -1.63875287697213   -0.06392859213959
H           1.44807323212786   -1.12676429757118   -0.16509432442042
H           0.13424645426025   -1.17368391050771    0.65860203377910
H          -0.21163924047415   -1.55247645025284   -1.27182356179177
