    19
        -40.92135411
S          -1.46006229443042   -0.46895944172421   -0.28940017404682
O          -1.11177218043652    0.84321970666165    0.23231746210751
O          -0.95246670521681   -0.70577997261380   -1.62299489113278
O          -1.07953933019060   -1.53356111659873    0.63981281061467
O          -3.03548356105321   -0.49766046238228   -0.37668978229170
H          -3.20813428677666   -1.32380521719375   -0.81756797191602
O           0.64209291942612    0.86882937197778    2.21272491862854
H           0.18690059877918    0.77540674377213    3.05160775288259
H          -0.05340755447879    1.00657610309705    1.53010653808728
O           1.64102234851959   -0.51505729762190   -1.30480559916221
H           1.63569250997402    0.47184983981627   -1.28760295360020
H           0.72899606496670   -0.73630084531099   -1.60858414145449
O           0.84416529848220    2.00270362912136   -1.20563873599933
H           0.07544233583322    1.71766013893954   -0.67403660817451
H           0.49165113054039    2.31176121113887   -2.04191460384015
O           1.36556210677672   -1.27601655283701    1.03383943764340
H           0.36912460379669   -1.54742562771827    0.92164211382679
H           1.62979499047751   -0.96761858294168    0.01874052826068
H           1.29042100486496   -0.42582163768627    1.58844389949002
