    19
        -40.92453849
S           1.15317198479968    0.87036480828632    0.48544996216628
O           1.74140622982816   -0.29812047571674   -0.15913810219158
O           0.38019571072957    1.65521125102770   -0.47108557790738
O           0.38996271197425    0.52744426430330    1.66703556836065
O           2.34699372066821    1.78223541786190    0.97330796033169
H           2.83723360496688    1.98971141310253    0.18308104002594
O          -1.99543064895429    0.90525064774294    0.71274125501541
H          -1.77457229706288    1.61538284816875    0.09840974038899
H          -1.18091540380370    0.81738758231992    1.26635156715225
O          -1.68894530697515   -1.24805083661946   -0.56065332637008
H          -1.96777059180937   -0.38656981436261   -0.03501096504486
H          -1.11737704856794   -0.88967233815373   -1.35934030624488
O          -0.09081763850020   -0.20946477227109   -2.20833280032663
H           0.73761814539087   -0.69274601665444   -2.10715724636684
H           0.06056699791580    0.62206556123188   -1.69068943231367
O           0.18465695426094   -2.09218881727003    0.89921582613031
H           0.07062174352470   -1.68378742733604    1.76524675425978
H          -0.99270924090506   -1.72737778769323    0.05699332765807
H           0.90611036260658   -1.55707550800040    0.48357474526150
