    19
        -40.92079107
S          -0.10277422625307    1.16122914661346   -0.92030574596070
O          -1.22551210006817    1.97664312858126   -0.53487858914317
O           1.00612300253161    1.24508490905453    0.03221013943822
O          -0.44077164803043   -0.22556055511627   -1.20934107514740
O           0.45125067168945    1.74163791140867   -2.28473632515842
H           0.53584578551570    2.67368775026174   -2.10967828377003
O          -1.77528729439835    1.04614066905852    1.87739330908756
H          -1.56489911312385    1.48588304913861    1.02530671760849
H          -2.67596421057798    1.29665079110674    2.09160976165028
O           1.59008694553769   -1.88267843832187   -1.30095939216932
H           0.85386712286368   -1.24905484381271   -1.47233458479239
H           1.25579624887024   -2.75550564732675   -1.51704873658076
O          -0.91017842277782   -1.34071432549981    1.16631698712527
H          -1.29238851458879   -0.56283530299599    1.63605521075833
H          -0.97951913051613   -1.09886985163349    0.22056822217426
O           1.54749936585107   -0.93304818630624    1.07533995385582
H           1.42699945128163    0.05356509013520    0.72368637889136
H           0.53539407244972   -1.19740313596742    1.28079282781231
H           1.76443199380697   -1.43485216836039    0.22000322431193
