    19
        -40.91791102
S           0.58394222686195   -1.07276190153540    0.45687742410387
O           1.20787314659554   -2.35646316357727    0.48043197531401
O          -0.35247212505861   -1.01273577428539   -0.74893756443101
O          -0.08057447409344   -0.61961845970245    1.63725788455044
O           1.67457080321301    0.01284232321338    0.09921833693232
H           2.13208282044871   -0.40158532242172   -0.67585579039038
O          -2.53794741833332    0.44821154501204    1.87335917481905
H          -1.62879689442345    0.11786556860117    1.99825195821163
H          -3.12328434982936   -0.27459373395555    2.10625813175218
O           0.38525772309119    2.47228375500543   -0.03423242410696
H           0.92003455855820    1.70684507619315    0.22232764714440
H           0.94860445607127    3.05031492218973   -0.55213459308315
O           2.32863311008793   -1.61247637695835   -1.80831731410413
H           2.11197100752911   -2.25047090064676   -1.10488858392205
H           1.59544981785793   -1.64468637783192   -2.42932572024975
O          -1.78817701107360    0.99892470229511   -0.60529912516676
H          -1.12531134051241    1.70516851107742   -0.45792750263299
H          -1.01066992705770   -0.15333020101540   -0.72273483964561
H          -2.24118610985875    0.88626581838976    0.26567091490239
