    19
        -40.92139801
S          -1.13770926488662   -0.40482141855313   -0.09904052007718
O          -0.84640313145788   -1.17845429879322    1.10532653794499
O          -1.01357577297381    1.03030994102873    0.13620269999882
O          -0.28226391059870   -0.81205977947484   -1.21268992055029
O          -2.61306713801914   -0.71786665710289   -0.47983156770408
H          -2.74749600303245   -0.17620566755372   -1.28436232465002
O           0.93298720200254    1.75805184579347    1.69322748772790
H           1.51110046556471    2.27964622320913    1.13201554612004
H           0.11098160912840    1.58439589283156    1.16250956510269
O          -1.99136900452965    0.96113974984631   -2.41261712239684
H          -1.71298187920864    1.52990871093301   -1.68215877041545
H          -1.24394838868613    0.36750434741052   -2.56340414032094
O           2.18118833278866   -1.06544885601941   -0.47782050448116
H           2.46919211505799   -1.93793589448428   -0.75445826807966
H           1.26378928589068   -0.94924743095777   -0.85250852899481
O           1.43638997065824   -0.70574547804837    1.91240918875707
H           1.89941213041899   -0.89260623023497    1.00916448418738
H           1.34878822796694    0.32405732230434    1.96873348097244
H           0.43498516377633   -0.99462231122356    1.69930268605065
