    19
        -40.91836655
S          -1.24361414432736   -1.12748807989114    1.03492109094340
O          -0.89565802805392   -2.10551707582739    0.02059752278474
O          -0.10799657566930   -0.65697947858360    1.79409421464323
O          -2.02234077990658   -0.02152442035572    0.45569856034594
O          -2.21149866272905   -1.84526498390703    2.05307849616623
H          -2.86255980364330   -2.23490164285874    1.47732150829405
O           0.96447005843224    2.51209643108358   -0.32608506529382
H           1.59805114449704    2.91847696225976   -0.92036761165950
H           1.41646678785691    1.75212433727516    0.10331131093841
O           1.98008135200953    0.19793284241552    0.56281965954805
H           2.73221100210498    0.06887261069483    1.14310945727915
H           1.18997528155984   -0.13203015579525    1.07553201664631
O           0.70045556649983   -0.88997770283327   -1.62609984800358
H           1.40725001078520   -0.63343828709281   -1.01058422185467
H           0.13183705087136   -1.51971302046100   -1.11470260620174
O          -0.85872596123428    1.05864299348483   -1.42498314354588
H          -0.21390394047211    0.25709652740858   -1.66770326713587
H          -1.44702322532282    0.64548837097515   -0.62845015811910
H          -0.25747712325034    1.75610377206914   -1.00150791569802
