    19
        -40.92343660
S          -0.60892380003451    1.12295031266832   -1.10168538507929
O           0.23017793041377    2.07075534453677   -0.36711581926739
O           0.16665706413896    0.30839455823247   -2.01264134242008
O          -1.43310791139420    0.32741277813129   -0.20553171052439
O          -1.60307902520757    1.98930443782839   -1.96384074997026
H          -1.01432551687296    2.49633766637276   -2.51410326983188
O          -0.60052035373852   -0.16132439635464    2.28233950178770
H          -1.11520664858019    0.15509424824118    1.51088462710237
H          -0.62230889364322   -1.12267222014360    2.22031147612020
O           1.73596505220577   -1.07452630187475   -0.44216161851961
H           1.04554082657758   -1.71208121246564   -0.16372192658720
H           1.31564972091511   -0.58667016664618   -1.19016560530175
O          -0.63819070344676   -2.17940873871816    0.15605575608603
H          -1.01428196416945   -2.81220877614059   -0.45726472707023
H          -1.03392187347698   -1.30871558828375   -0.07007357544184
O           1.55044544291583    0.73602275773144    1.25946292683794
H           1.08360673893389    1.42406079491281    0.62573904534710
H           0.77752263018739    0.39341191757914    1.84386352647516
H           1.77830126421294   -0.06613742562354    0.58964886016707
