    19
        -40.92120607
S          -0.97618523912079   -0.57858859188889   -0.78300995185727
O          -1.50246020626124   -1.88035328340582   -0.47726633351961
O          -1.38324368861288    0.45048021471407    0.17424494089081
O           0.45639810463959   -0.53001020826331   -1.02623463974854
O          -1.62849888357365   -0.13498242606377   -2.17197038489329
H          -2.48025316322680   -0.56139530716750   -2.17694065982308
O           1.81614304937400   -0.30196775566768    1.26635052204692
H           1.19216684614696   -0.89419728626910    1.73839436551719
H           1.66727131512169   -0.52792772383550    0.32865619666325
O           0.92402840115464    1.99977072820432   -1.51597781829861
H           0.20873172368285    2.33333266236594   -2.06076510138141
H           0.83743289071340    1.01859462349970   -1.52088592160731
O          -0.22801763718153   -1.89820835419943    1.86717948843638
H          -0.23731647336517   -2.79680982113167    2.20355069826855
H          -0.75760212164502   -1.90777484142742    1.04648179820747
O           0.51054217169517    1.80794316964883    1.00537433014446
H          -0.37895401258568    1.29463956788118    0.77403719469480
H           1.16005011432730    0.99485300369128    1.24662113969258
H           0.79976682864795    2.11260159954313    0.08216012653620
