    19
        -40.91209424
S           0.33089814040781    0.47757451208736    1.85313142537419
O           1.19787447107604    0.98529454389233    0.83211978807708
O          -0.81893406494155    1.24813036852666    2.19956347652361
O          -0.07544829261565   -0.95334235332352    1.52775795140304
O           1.20953374240266    0.32610122228615    3.16039422713610
H           0.61893115461560    0.30455410115885    3.91123900264743
O           0.20306994911080   -1.66752272096700   -2.26746431584247
H          -0.26627424421194   -2.50220454421460   -2.31477839713820
H          -0.49032943187032   -0.97218947800094   -2.17604515987143
O          -0.95550394220991    2.14796846247901   -0.38754562180701
H          -1.32840412545604    2.05691044641279    0.49920094497297
H          -0.00885855075173    2.00293991865968   -0.25853367037593
O          -1.71734649239169    0.16381148288813   -2.01800950194610
H          -1.48397038282801    0.89023873631780   -1.39679031328481
H          -1.98056777012196    0.59392396200468   -2.83368651924486
O           1.68629545719926   -1.52704357719413   -0.11229818297952
H           1.19700717682475   -1.62253453780605   -0.97737698230972
H           2.02783496466839   -0.62244699622832   -0.09687901111448
H           0.65419223111298   -1.33016355900472    0.85600086977284
