    19
        -40.92453850
S           0.45014654877242    0.17269465665672   -1.44562790989216
O           1.44761526353213   -0.66001885105169   -0.78354887456420
O          -0.84864637154173   -0.49137269469209   -1.46506356461325
O           0.38309419312370    1.50723404216737   -0.88820175962291
O           0.90642792760007    0.33831612733222   -2.94871673803080
H           0.94488170335585   -0.54901216580353   -3.29369062405533
O           1.64748924135353    0.72256076493611    1.40971617479364
H           1.75549980878120    0.14156747897594    0.61563022766070
H           1.52719500995121    1.60164077870450    1.03221227223863
O          -0.63760809140411   -0.10807075222784    2.07465856085081
H          -0.62835777152144   -1.02087642186843    1.56484278150640
H           0.33197096068193    0.26569491064091    1.94712542788363
O          -0.48898590837814   -2.09798933489963    0.53674956070702
H           0.45345984880306   -2.25670314381401    0.40723706162239
H          -0.75747809772097   -1.61110140078785   -0.28365381044412
O          -1.87329786000555    1.28745781135169    0.37805410567513
H          -1.24481444941853    0.51019385729321    1.48739423008558
H          -1.07139271286951    1.58205310428108   -0.11971096781738
H          -2.29719925174518    0.66573125379663   -0.22540614455724
