    19
        -40.92135372
S          -0.48832479279455    0.89001721612246    1.18602644538514
O          -0.89586261377133   -0.41056286684260    1.71929402306552
O           0.92402760514211    1.13606060404626    1.37770181177808
O          -0.91789399968085    1.05919557394686   -0.19316827211769
O          -1.27146535717197    1.97598131028469    2.02120109883029
H          -0.89610520540451    1.88513666108192    2.89158916981106
O           1.16832146402335    1.11212867482245   -1.89138638091474
H           0.35177170871969    1.19771259564657   -1.36157803194395
H           1.62237182316971    1.95373460385515   -1.82202592492512
O          -1.60125503913398   -1.15574772360254   -1.46855305024406
H          -1.43632215057187   -0.25558129844238   -1.10652058851382
H          -2.52943585042097   -1.34486622702889   -1.31900717720293
O           0.07423039227752   -2.12454151810768    0.19548626906287
H          -0.33718614327750   -1.53788197018921    0.94756140587826
H          -0.54679136791433   -1.92902510568905   -0.58673209474592
O           2.04688766160085   -0.67116416968636   -0.15029286637284
H           1.01274993130652   -1.60163136316712   -0.00900576796380
H           1.88774577128862   -0.16591904139286   -0.98321582196167
H           1.83253615261265   -0.01304597577466    0.55262576310404
