    19
        -40.91322286
S           0.32411254942879    1.55992935526285    0.32665532225916
O           1.40428239854785    1.46271716751790    1.39590083869883
O           0.83967264528182    1.21577428245407   -0.96617164205447
O          -0.86242301918235    0.88118297538540    0.74262672355700
O           0.00704463739265    3.09978213523582    0.31099564558479
H           0.74034030258948    3.55920677215810   -0.09550196035808
O          -0.99946085528093   -2.43768614018087   -1.35008313539151
H          -1.33125890439929   -1.56106534147883   -1.64097609647572
H          -1.72878363242721   -2.87107611556996   -0.90495393579734
O          -1.64636477698323    0.14683837246360   -1.77244993048279
H          -0.81647076954795    0.50720668388796   -2.10268578053110
H          -1.66485523661554    0.39499099465940   -0.83618321900805
O           1.16924323819568   -1.42700536569091   -0.10960171409874
H           0.45360413608397   -1.92884970196618   -0.55657656771506
H           1.26114951881975   -0.60297259880002   -0.60258824220729
O           0.78476988675897   -0.73729592605524    2.36228513074525
H          -0.17208264131649   -0.62290834916162    2.36922139130513
H           0.99502219278967   -1.20183938696324    1.50421142104919
H           1.24245834032249    0.56307019692933    1.92587574069578
