    19
        -40.91483108
S          -0.75449924572243   -1.26522152496400   -0.17509600083687
O          -1.41657130313144   -0.19280033726968    0.52128220163466
O          -1.19117169117853   -1.29582739904549   -1.63289183078878
O           0.66421791104380   -1.31450307003954   -0.06548686752147
O          -1.34071110931699   -2.60889047472778    0.38037379491209
H          -2.29046424537766   -2.51618896794698    0.42589735777193
O           1.94589806053098    0.92432337941674    0.99493696517134
H           1.39852304478024    1.01468954208616    1.79493297529347
H           1.83324820840712    0.00392848933409    0.72342232986967
O          -0.20174398387924    0.93880387679199    2.70891282842866
H          -0.65061973213188    1.76506570669294    2.89838201443217
H          -0.71322250832605    0.49888102330095    2.01031593137552
O           0.15814243952165    1.69300012575962   -0.80916997100243
H          -0.59375711726851    1.28974271411228   -0.35885664118964
H           0.91816541226635    1.59770984600716   -0.18221539436008
O           0.67860020026692   -0.03561249775165   -2.65698210953628
H           1.45827458334409   -0.47375696108406   -2.30075469554484
H          -0.43814778365024   -0.80093131370785   -2.19288137990536
H           0.53583886979783    0.77758783304773   -2.08412152817832
