    19
        -40.90739399
S          -1.11093774734256    0.10007361775316   -0.08945430438374
O          -0.20787570352243   -0.88624878455798    0.45910794708430
O          -2.35441325596461    0.25532157203385    0.57936856468951
O          -0.35718205484924    1.45177278204079   -0.15148258192836
O          -1.33674510295618   -0.21073647948808   -1.58815518206058
H          -0.44113696585084   -0.36981563119307   -1.96597833689374
O           1.26756220314441   -0.54612368235504   -1.73053996031363
H           1.05998025115358   -0.86854274915339   -0.83455457191953
H           1.70441211805500    0.30391980052436   -1.62268236406541
O          -0.68885142613830   -0.04184069845908    3.00346263338914
H          -1.53630366231086   -0.45094048048695    3.19532937986317
H          -0.35892422925904   -0.48375050839740    2.20445587743319
O           3.40502456686776   -2.08760895453905   -2.88145626286087
H           3.07510265309883   -2.90027418671155   -3.26783770330925
H           2.63485274326194   -1.60763488907569   -2.55004158819595
O          -1.15226106557700    2.40621234760353    2.04739085737648
H          -0.59628050303334    1.98051645131430    0.69458837651258
H          -2.10303858049797    2.33833228978799    1.91366799102379
H          -0.90298423735159    1.61736817365436    2.58481121004566
