    19
        -40.91864551
S           0.64087550855341   -0.68723536373061   -0.71408859307701
O          -0.32692464618195   -1.33046424605575    0.14310780414596
O           0.54172720746707   -0.95340708826963   -2.10663699004731
O           0.50335982523383    0.85869714180830   -0.49226146455963
O           2.04526346522022   -0.96797287281465   -0.18124260810097
H           1.95154542758887   -1.10261813432642    0.83293887552805
O           1.41141560219557   -1.20405159418968    2.25155514370570
H           1.23671976452607   -0.26358935661531    2.47303192135453
H           0.55810655597173   -1.57036174854670    1.98244716287067
O          -2.63869519600541   -0.38170920394206   -0.85345120671766
H          -3.20515240976137   -0.15597413081406   -0.11285365162455
H          -1.88083606403121   -0.87331186942148   -0.48511194793335
O           0.85626915638441    1.41998007770788    2.18481291161359
H           1.54042016921850    2.08448567458921    2.28725632953048
H           0.65765394349445    1.36625633938748    1.23604448639932
O          -1.14326690195691    1.23603379058252   -2.35174201653249
H          -0.14060882911881    1.18100517217056   -1.23082743974985
H          -0.72048187196356    0.59212606520865   -2.93448495639567
H          -1.88739071685814    0.75211136725587   -1.92849377044483
