    19
        -40.92135274
S          -0.24534572944504   -0.68994626210218   -0.50017699452648
O           0.46375183734482   -0.99016990687428    0.75974983207674
O          -1.42129266013497    0.11295192892503   -0.24178928466816
O           0.65633162709950   -0.06412020641175   -1.46261863982082
O          -0.71587472879164   -2.04804241226337   -1.08817197873026
H           0.09340726820135   -2.44241497895314   -1.48655377169113
O          -1.91876098052176    1.01391118756077    2.16085288360961
H          -1.90105236411818    0.69319964859564    1.22550733490557
H          -2.32128181772076    0.31319243027791    2.67746218451799
O           0.55705200536913    2.27532376483362   -0.26041420586282
H           0.71441459308724    1.48544666645638   -0.82581563182142
H          -0.36020151049532    2.51783204332189   -0.41739699989875
O           1.60677438079709   -2.38789868704779   -2.25866793565728
H           1.55795483286078   -1.43363390309871   -2.05329163082577
H           1.60526219850014   -2.46347220938622   -3.21585988964532
O           0.62204861328133    1.10592383577186    2.00486129851718
H           0.71555777936138    1.72032550881427    1.19030017811907
H          -0.36280083985305    1.17109295845688    2.26760045171866
H           0.65405550517611    0.11049860310617    1.52442277967700
