    19
        -40.92217256
S          -0.26169040558946   -0.51704269975574   -1.25361833018743
O           0.60764993083181   -1.29969026469465   -2.08457692103036
O          -0.68513274408985   -1.22050968966905   -0.03628070917094
O           0.20132796650984    0.82397612927342   -0.94243132084441
O          -1.60985412281041   -0.28921479813333   -2.08384549951107
H          -1.61750716135623   -0.99192550698369   -2.72701415985773
O           1.72962983953149    0.88274802521611    1.26004831252917
H           2.11104703014816    0.01048290812575    1.01625248987886
H           1.42869597612275    1.23670461617313    0.40437461564360
O          -1.79108713109640    1.89589546049221    0.36733940802747
H          -1.06993382728465    1.66725055300709   -0.26325922921486
H          -2.60679627075656    1.60587102838747   -0.04559471093423
O           2.12889733521649   -1.50308922625064    0.12541008736705
H           1.67931314544254   -2.23691673427955    0.55128996841880
H           1.75126909993602   -1.45258856033899   -0.77056818810636
O          -0.59324727477384    0.26658510348503    1.93841759542519
H          -1.15122100578497    1.01673320229585    1.54358865494679
H          -0.67568375142912   -0.46820435220678    1.18469984630737
H           0.42432337130324    0.57293480959228    1.81576809150703
