    19
        -40.91415016
S          -0.84983997383469    0.53896244414349   -1.79826241725748
O          -1.52181541211970    1.11917449439182   -2.90260572814114
O          -0.18147086621386   -0.75582855505218   -2.18178758546157
O           0.04479243594313    1.37100679283655   -1.03248788522060
O          -1.95564276411701    0.09254077542565   -0.73431424050068
H          -2.64374165079617   -0.32645703415419   -1.24360029079866
O          -0.35650809956907   -1.51280980216234    1.74937590605614
H          -0.47727042650767   -0.53714655621511    1.74573859468691
H           0.00739365880818   -1.74450534117245    2.60551409194286
O           2.30034229654640    0.76959266321891    0.36552736350724
H           1.72227759459633    1.21117467684687   -0.27667715399397
H           1.96258786036422    1.02433230533847    1.22908526284221
O          -0.49626457051062    1.16641576298437    1.57423717483046
H          -0.32986646320994    1.29546017143024    0.61749263159502
H          -1.38825253856114    1.48328619107462    1.72493916416705
O           1.24888043475947   -1.56402434469186   -0.35354419125657
H           0.62931700819224   -1.70092805320300    0.40586142733443
H           0.47662440191880   -1.14410987156937   -1.38878044118857
H           1.80845705318083   -0.78613673061144   -0.10571167934900
