    19
        -40.90863215
S          -1.46878812639240   -0.63040814126772   -0.90925965995598
O          -1.54791348070419   -1.34419445317355    0.32125280843512
O          -1.66920482649627    0.78749260647330   -0.84166453939763
O          -0.16602620672754   -0.96039348629784   -1.64687042246337
O          -2.53203925815924   -1.21210680745113   -1.90154528768819
H          -2.56663316528249   -0.60291378500849   -2.63598558375437
O          -0.20973088690514    1.90292422432861    1.09830121000598
H          -0.47665029554343    2.80541109884025    1.28208974684669
H          -0.78880682450691    1.57961046578663    0.37974813059486
O           2.06936246987904    1.63379917085331   -0.62058343784936
H           2.27573176599687    0.70051128305030   -0.52386742979603
H           1.37525929619502    1.82056051336780    0.02471769393470
O           0.34137141253964   -0.57550020615152    2.12558580255523
H          -0.47730416187690   -0.96369432451572    1.77839548012069
H           0.22968512291242    0.38529500530064    2.03303502945897
O           1.71245511728699   -1.20305858664744    0.03033985192663
H           1.28317005074221   -0.96436767870780    0.91180731473862
H           1.98662238090633   -2.12021503971971    0.09739370227872
H           0.62943960622624   -1.03875185910046   -1.00289043004360
