    19
        -40.91944537
S          -1.13423386687596    0.19134638601139    0.20846490250164
O          -1.51166391404494    0.94121912508894    1.47978494180990
O          -2.29556471868514   -0.12738274434328   -0.54470591845205
O          -0.11416130158280    0.93092949177667   -0.51268988842504
O          -0.44971404778417   -1.09259003561690    0.76197912755426
H          -0.20718620566589   -1.67649206017575   -0.02618509312597
O          -0.77887022134135   -0.34049733279548   -2.82412014939667
H          -1.70902045154259   -0.38040541769728   -2.57117671284390
H          -0.40796723684678    0.35278141888859   -2.25632076191458
O           0.25147909529559   -2.28792585399000   -1.38510585811163
H           1.19745738589518   -2.29799525416529   -1.55015039112558
H          -0.14432451558966   -1.67640251268562   -2.06013905362147
O           2.05911695536314    0.33839518668882    0.90929436883439
H           1.84557568508203   -0.56472022880177    1.15944573523818
H           1.40256653112651    0.59502024112257    0.23152479410317
O           0.62583835626134    1.79792593878693    2.57629040430267
H           0.73820705439968    2.72384679001562    2.34861228766772
H          -0.68654527170496    1.27629171601742    1.97825840329308
H           1.31901070840704    1.29665512584918    2.07693885171988
