    19
        -40.91827289
S          -1.13354368902190   -0.01028230006078   -0.32627547507876
O          -2.25980749384533    0.72593444596004    0.12963655174289
O          -0.06950927310741    0.77813965095366   -0.91199515320578
O          -0.49206796371887   -0.82954069039206    0.84058114397097
O          -1.57332880607386   -1.11498311494413   -1.27909112432871
H          -0.78007266826283   -1.63104964172982   -1.65522778888594
O           2.01143276040602   -0.85600465261669   -0.56968118752596
H           1.41729655393425   -0.10793499731996   -0.77756300431805
H           1.79141642896497   -1.12597906876921    0.32629365128351
O          -0.65492134202731    2.85779823245276    0.74186582384075
H          -1.58811952952748    2.61140225246469    0.73233655643314
H          -0.29075448526336    2.43412848426639   -0.05045882716194
O           0.47881949471495   -2.42014738183743   -2.05089759447635
H           0.47716678514719   -3.29898460596427   -1.66455239399234
H           1.20829938645665   -1.90959472867732   -1.61892794149130
O           0.36366833690001    1.04723696892906    2.35348271925539
H          -0.02827101027867    1.83497283575896    1.89160683478385
H          -0.19230889277407   -0.16614396813783    1.53932936589943
H           1.31460539737495    1.18103226965920    2.34953781324807
