    19
        -40.92071384
S           0.31119226562599   -1.41587781567289   -0.31128566686938
O          -0.72326057029585   -2.18637099494226   -0.96215771921795
O           0.83863985219336   -0.33831380750823   -1.11591349379696
O          -0.13226684465413   -0.91152808567165    1.00378557186784
O           1.50080857861931   -2.41016438777681   -0.00756932971063
H           1.06772181429812   -3.24431110445532    0.15003517703483
O           0.73014687530553    2.10723099595444   -0.16003351969071
H           0.97905522576665    1.31271142718909   -0.68625008545872
H           1.18427099774007    1.96656562620391    0.69753935950951
O          -1.88817810539326   -0.04221591885966   -1.90927668893318
H          -1.60079780035173   -0.94709661969207   -1.64136214579922
H          -1.21283971831960    0.26225819120148   -2.52260167127804
O           1.51560959349658    0.90764966463321    2.08595032698302
H           1.01332308845239    0.13290827537591    1.76390107930051
H           1.33400446056580    0.98148935669119    3.02397741726297
O          -1.47973585346950    1.10169449331353    0.32195740524398
H          -1.05881528765285    0.26751015362326    0.74705499045215
H          -0.58367029790621    1.70307477920518    0.11669524963329
H          -1.79520829568056    0.75278581019564   -0.59444624881796
