    19
        -40.91722670
S           1.09188547242785   -0.20915846694508    0.57617310580639
O           2.28797492222682   -0.24960837000529    1.35082552386137
O           1.00752874783513   -1.04201694660984   -0.58317967066529
O          -0.08825499887438   -0.49170306855882    1.52364581260873
O           0.82194844078797    1.25666395782999    0.09828266099213
H           0.97775200293064    1.80172450471321    0.90727780199879
O          -1.32681218802036   -1.68302183871152   -1.98121345143529
H          -0.47276469437757   -1.95714107593690   -1.62085663542813
H          -1.10506084891496   -0.91685556762163   -2.53996026693204
O           1.40272749767825    1.96626311928998    2.53037253489588
H           0.73312156249851    1.67947330566260    3.15656950979469
H           2.01166610927967    1.21579760110735    2.41531774542431
O           0.08423206746901    0.55299111271890   -2.66276247262386
H           0.63362577986465    0.06440622390463   -2.03177431502129
H          -0.04392799042218    1.41999954808352   -2.27297619634883
O          -2.23208406455513   -0.61921464076381    0.20573085029949
H          -1.96460088776547   -1.01600022473732   -0.67899794350039
H          -2.84192608931767   -1.24271378279530    0.60680848172372
H          -0.97703083097719   -0.52988539027448    1.00071693426521
