    19
        -40.92079120
S          -0.20627224980393    1.46458629845898    0.14081885137593
O          -0.62715358965840    0.61945779204017   -0.96796891164845
O          -0.24116111644684    0.72879601223524    1.40635855725153
O           1.04851108249584    2.13871176379181   -0.07176414799067
O          -1.32408159930226    2.57917275673873    0.25540454155317
H          -0.96454872522590    3.18684247126343    0.89414776880410
O          -2.52701011096719   -1.10241330804685   -0.41514800527134
H          -2.73487485393761   -1.58713511669088   -1.21650551386456
H          -1.96977529958487   -0.33532110569776   -0.68707090812472
O          -0.55134609830469   -1.70703671670098    1.09586368415562
H          -0.40757287793415   -0.70194608799430    1.37985732946245
H          -1.44324914279403   -1.66251207315260    0.61361898050196
O           2.78482264927049    0.15290420605446    0.08842379025050
H           3.59446834317961    0.43409720960134   -0.34196016714578
H           2.19624123424848    0.93860823773304    0.10318076876244
O           0.97493028581780   -1.50928827400045   -0.86478903519151
H           0.44034923931929   -0.76079956770427   -1.19898836179601
H           1.79397553286360   -1.07936196495205   -0.52325580792163
H           0.16374729669056   -1.79736254298791    0.30977657658629
