    19
        -40.91893407
S          -0.18913589435219    0.47882151411687   -1.65881567111609
O          -0.05718149446979    1.49313919399413   -0.63140550258574
O           1.04051959458668    0.10591441001839   -2.31111780781297
O          -0.92555992237619   -0.69036248577356   -1.15500680830514
O          -1.11718413898272    1.11261563240492   -2.77966836705913
H          -0.86707216359388    0.62957066620111   -3.56153746958220
O          -1.20012348863273    1.46128396551164    1.69310709903801
H          -2.01309008551045    1.96695886762845    1.63887286934729
H          -0.73036855717268    1.59504853283481    0.82943944235094
O           1.13121281344386   -1.80831282416986    1.61057600843512
H           1.32433723094622   -2.64990751869088    1.19283653663331
H           1.61515128963581   -1.11908188809616    1.08047517558856
O           2.19472868474668    0.01902664547532    0.06003466937532
H           1.92980468042778   -0.05539729665775   -0.87938291620814
H           1.90594948278354    0.89994711421950    0.31672427785726
O          -1.25162738624252   -1.03894176059247    1.25849006802722
H          -0.31450529976944   -1.40264324139405    1.50948401140400
H          -1.29030507489308   -0.07009358745142    1.59094152580557
H          -1.18555025057123   -0.92758594957876    0.19595284880695
