    19
        -40.92022155
S           0.54612315707646   -0.64541685550332   -0.37647575488416
O          -0.24128031533574   -0.66775976892374    0.83427779652094
O           0.55611075892660    0.63830018971622   -1.02942891681874
O           1.96381262711491   -1.12212264812972   -0.06120098306792
O           0.04153006452196   -1.70631277313565   -1.36041985829580
H          -0.63315802772409   -1.24415530884980   -1.98016239273069
O           1.28911902561416    2.06923743160156    1.13069044419022
H           0.47908708780583    2.47888938454550    1.44197488328064
H           1.08675574240210    1.70259682499550    0.25109543365613
O          -1.60311496891121   -0.22362678264018   -2.58222335865400
H          -1.01116411212673    0.53748941682494   -2.60024706416020
H          -2.18749314402557   -0.08270412463720   -1.80344457645948
O          -2.66256290320732   -0.03354061656075   -0.13353804987452
H          -1.82692711082409   -0.21181592423903    0.33907620035195
H          -3.29361613172850   -0.68687421383219    0.17575872148510
O           2.10580354396001   -0.19722017676389    2.28868001975956
H           2.18366061958996   -0.83084499890811    0.89808375448450
H           1.97451138605226    0.74073784477149    2.02158005683634
H           1.23280270049344   -0.51485692044844    2.54592363388665
