    19
        -40.90712913
S          -1.36206683378456    0.99589964391619    1.50023782723391
O          -1.97336970313016   -0.28338114189926    0.93710806812020
O          -1.11165693300295    0.86753426339835    2.89008170321047
O          -0.28288955252947    1.42886386598720    0.65490020022361
O          -2.51458370889555    2.06874754038481    1.30839276982970
H          -3.07884067205087    2.02008005201877    2.07737152009272
O           0.24775741331759   -1.66008006798881   -2.26400513876300
H           0.55827750587539   -1.60826464637288   -3.16917407856460
H           1.05203620059712   -1.63763893355066   -1.69519326686453
O           2.16167158712219    0.38328680185165    1.09282638587858
H           2.76108434266902    1.11899519781369    1.22927011235012
H           1.27449407437698    0.76973892189239    0.98078519573089
O           2.43718282737377   -1.57393009619862   -0.73588462467608
H           2.53295467002801   -2.36386334106927   -0.20095816503556
H           2.37918717272375   -0.82997093457401   -0.10053502274057
O          -1.46217287039181    0.17898794011314   -1.45222947456725
H          -1.86875758773094   -0.20469741309654   -0.10042907555228
H          -0.86636104991426    0.88304338388476   -1.16032491101261
H          -0.88394689279857   -0.55335104650386   -1.79224001499672
