    19
        -40.90754434
S          -0.35287122566203   -0.28489001467026   -2.10551566966088
O          -1.43620215056021    0.57203437062887   -1.73488916061962
O           0.89431845305738    0.04869828719251   -1.24470834345563
O          -0.56251499171289   -1.68872731093241   -2.09016095582070
O           0.13295287224994    0.15823877238674   -3.53388162005455
H          -0.04632244640626    1.09340412459024   -3.61762229135682
O          -1.65080179404053   -0.29750764612369    0.86771144226844
H          -1.37323803603606    0.47293702077026    1.41000779880452
H          -1.81931663725877    0.05414056618677   -0.01948745196322
O          -0.47874465775180    1.67153201681606    2.29107535554071
H           0.44020755271033    1.40776973394906    2.08132116551696
H          -0.55063701301088    1.67677452605382    3.24671920830761
O           1.90991856724130    0.61278098783221    1.52574338529286
H           1.70390556650795   -0.32917791205483    1.52962560007665
H           1.99478526334137    0.86299229184774    0.60139498807157
O           0.48593731189283   -1.68587391557998    0.53033215126302
H           0.85951325655238   -0.66658184424760   -0.50406238804445
H          -0.38728249311192   -1.24601374233278    0.79019838641445
H           0.23639260212758   -2.43253030245643   -0.02380159025912
