    19
        -40.92315433
S           0.96079745873480    0.53644140907210   -1.29273052471554
O          -0.33361215946540    0.68136242675139   -1.96391065625353
O           0.92183552020767    1.18363057193486    0.02009970077137
O           1.42169046603722   -0.82332180790061   -1.20997325025574
O           1.98260375200701    1.34463882683067   -2.17744691224342
H           1.46491576458457    2.09095513117292   -2.46314948691684
O          -0.37947564503690   -2.13108957676659    0.17917685959755
H          -0.03643578653820   -1.78400143675362    1.03054470993903
H           0.32494255942250   -1.88706085195465   -0.46347520633187
O          -1.37266825967268    1.24140493412262    1.35244302515839
H          -1.08724392418484    0.77099416475868    2.14290561293707
H          -0.54298761349688    1.46259036987057    0.87479260252970
O           0.83526727454973   -0.58584393690710    2.00019407232352
H           1.00687025408763    0.07462280291453    1.29270957283499
H           1.69521978062776   -0.89517978468093    2.28830017439427
O          -2.02751648519666   -0.38431529734447   -0.48837575083201
H          -1.43141859775077    0.06334466066015   -1.22010862117358
H          -1.44548785035589   -1.23381647589001   -0.20060369501284
H          -1.95729650809711    0.27464387132252    0.29860779291606
