    19
        -40.91940398
S          -1.03096252285316    0.27631338612766   -0.03058157979796
O          -0.68340409177678    0.26688873229534    1.37501871401457
O          -0.50499253620493    1.46720420847624   -0.70554442075813
O          -0.57904299237510   -0.94442150588915   -0.70780859507074
O          -2.57761252786651    0.35041231749346   -0.17739901751722
H          -2.87585989053766   -0.54741717266386    0.07949082164489
O           1.66237757922608    1.10407509969650    2.04088546162385
H           1.51826521150558    1.84780003869391    2.62989357992316
H           0.76564487685486    0.69326172926726    1.89464703753929
O           1.93987497510847   -0.80187282826477   -1.35200906286247
H           0.99703285277349   -0.96584773653134   -1.08755956655801
H           1.97142957574495   -0.90557641383070   -2.30539240530233
O          -2.68603422538421   -2.25531341899674    0.18491431390641
H          -3.08221297797351   -2.78800390089834   -0.50878523367158
H          -1.77364452276037   -2.05520957849644   -0.10090538609503
O           1.94033954350510    1.55521807128489   -0.42121037743413
H           2.12875775904774    0.62623762640384   -0.82013561288047
H           0.88859751987056    1.64576178730671   -0.59701960575039
H           1.98144638402010    1.43048954833236    0.60950093509148
