    19
        -40.92037964
S          -0.31642459273408   -0.31454516249560    0.98161180240643
O           1.14402688474487   -0.61881612277990    0.69937858414632
O          -0.57022796663524    1.09179219518092    0.71552326127290
O          -1.17906977159876   -1.21378917731435    0.28395442049487
O          -0.44884166220311   -0.55233463120997    2.50021470538078
H          -0.04531484065289    0.24087167154590    2.93440532860219
O          -0.56606454801693   -2.47470854205022   -2.01358342917517
H          -1.25168866164337   -2.22025306169916   -2.63479013669725
H          -0.88030275590497   -2.19087090723543   -1.13496524395845
O          -0.20556167566538    1.37183249442070   -1.92649004355659
H           0.09673612197569    2.26818258107602   -2.08601054509290
H          -0.46558885577509    1.32970813620580   -0.98589919943256
O           0.35609908896354    1.85446188357802    3.07094718701908
H          -0.26981958927597    2.38705966792637    3.56788704444587
H           0.09769767846373    1.91267938943273    2.13197415432683
O           1.41803207101779   -0.73865227587164   -1.75610677212245
H           0.90971355221160    0.06484886054823   -2.00791089172981
H           1.34770509915990   -0.69717486786978   -0.35996094128616
H           0.82889441852327   -1.50029212813228   -1.98017929358610
