    19
        -40.92135345
S          -1.46944672198793   -0.36975920579513   -0.37634058372528
O          -1.51376068537842    1.04932144593566   -0.73169894894523
O          -0.83883270527621   -1.16682845023987   -1.40530623153246
O          -0.88875671190429   -0.57147982327767    0.94170004796880
O          -2.97001823206082   -0.84550736967139   -0.26715405606254
H          -3.28135141195285   -0.77230663494200   -1.16403126603726
O           1.49161412950969   -1.81825010792508    0.80304827175872
H           0.60380710057027   -1.44796118049572    0.97438781421168
H           1.36091383884089   -2.74710821850785    0.60471026520813
O           1.64009447001207   -0.32007079322004   -1.36895483887703
H           1.87875493276801   -0.84233189184054   -0.56607102329709
H           0.75919175926854   -0.68732990082737   -1.61816060893537
O           0.49582598713695    1.46061241505221    1.91733395735627
H          -0.08884343314091    2.05662925072460    2.38911309724353
H          -0.03179646210341    0.65624496645565    1.70923789402479
O           0.82864580273454    1.88002403351780   -0.57800104331697
H           0.88517572204907    1.84024237015710    0.43754777463822
H           1.31359565418573    0.97596655543099   -0.95585955431427
H          -0.17481303331593    1.66989253878875   -0.74550096747132
