    19
        -40.92037957
S           0.93158947510118   -0.03554015862428   -0.53946156124706
O          -0.20510268597072    0.30929367808333   -1.37724258182456
O           0.96936623027257    0.89805538164340    0.65737306615290
O           0.97349697092023   -1.40383576492698   -0.13273745213048
O           2.22357517778160    0.30980758574010   -1.30884760172750
H           2.03915881089389    1.16182167097136   -1.77850638463467
O          -2.35718776395524   -0.25132795530996    0.12192178993228
H          -3.06084350977428    0.34466662933978   -0.14283942290234
H          -1.63336977721056   -0.13008876838743   -0.52258896737172
O           0.10993102709234   -2.34238458289389    2.23722057227053
H           0.56898433669367   -2.13895456090358    1.40108672021314
H          -0.54742193345627   -3.00777519347533    2.02286772409177
O           1.08934111310324    2.28070819189755   -2.57167586035718
H           0.33768638793469    1.75142146075731   -2.24507563538224
H           1.08969550323754    2.20751270038823   -3.52928282678656
O          -0.78159398486247    0.15213207720958    2.23782425240404
H          -1.51806296075801    0.01768507531907    1.59999750579131
H          -0.46415974837818   -0.75624714560559    2.46464747518081
H           0.23491731130610    0.63304968879657    1.40531917830759
