    19
        -40.92021794
S          -0.18297247735949   -1.04157033941320    0.03652410057272
O           1.08842204149362   -0.69630601985741    0.64795187084477
O          -1.25372403742035   -0.08976694377614    0.53679818525930
O          -0.17140087725977   -1.09613874139057   -1.39104648048122
O          -0.63262173039407   -2.41182271150667    0.58972160894925
H          -0.38027009151224   -2.41041153524018    1.54644144365664
O           0.56065479032152   -2.01713960802160    2.86908856794439
H           0.97651503203207   -1.37168005410030    2.26636785810117
H           1.23349674117926   -2.66416512262475    3.09482646009047
O          -0.99436225242110    0.93415673597942   -2.94605508078609
H          -0.59710679673436    0.13970052444411   -2.54128564775340
H          -1.81925164005789    0.64967506100331   -3.34397019222408
O           1.64239126519661    1.86036799135891    0.03252722650683
H           1.58007986159520    0.90200678533243    0.20726044745662
H           2.04358521715911    2.25600085234924    0.80874254738435
O          -0.93535487551269    2.09160144289087   -0.56912293363929
H           0.02729912194621    2.21958280192206   -0.40353283474388
H          -1.00911059942911    1.84366757882440   -1.52375650028431
H          -1.17626870282590    0.90224129182358    0.08251936313193
