    19
        -40.91039562
S          -1.08718193458296    1.22663863684454   -1.02714711017723
O          -2.14713088752478    0.26047852494409   -0.82078484377073
O          -0.70204588421993    1.85943524166077    0.25279715257114
O           0.06331938482170    0.71615677606130   -1.72812288606273
O          -1.68749643002332    2.39215823442448   -1.90160482863093
H          -2.50843693929923    2.59822692137909   -1.46416278739598
O          -1.15606856104912   -1.48511460422853    0.80667028728626
H          -1.58269217696072   -0.89614254298798    0.12981279256408
H          -1.86143543833379   -1.80844260111483    1.37058201754481
O           2.20883717623298    0.09325816191870   -0.41122833109972
H           2.86670567195027    0.77400377759763   -0.56243805394808
H           1.45240198294502    0.29280063082016   -1.02077378011662
O           1.54529738766142   -2.43916223260518    0.75535223814069
H           1.99878372970555   -1.90457462450261    0.09705991344216
H           0.62414269401996   -2.49280652551725    0.48337150701250
O           0.58448691953667    0.24634787339821    1.57139428816862
H           0.01815066548864    1.03561281819122    1.07187062653234
H          -0.00769153685720   -0.56917215708585    1.44599746376973
H           1.37805417596701    0.10029771145160    0.95135437447595
