    19
        -40.91535454
S           1.58881466403658    0.35409437671860    1.16697642032817
O           1.95360518960119    0.89728987715241   -0.10750845110673
O           0.56268896212135    1.23733382894693    1.85657240605642
O           1.16879875490698   -1.01560259275775    1.17725716074114
O           2.82597564117870    0.48150049719240    2.12403531149906
H           3.20348172850842    1.33851923508701    1.93993719876760
O          -1.22612001638177   -1.69346113261402    0.33638877886291
H          -0.29954516630253   -1.53490192765625    0.62864204055785
H          -1.53683100593931   -2.45053183407745    0.83638723881021
O          -0.21077632800097    1.29266485029188   -1.71993150959109
H          -0.35839845477623    0.42481796242059   -2.14399050193411
H           0.68143065174472    1.25240309052204   -1.33793041026538
O          -0.92219240475902   -1.25633245668430   -2.38876418011554
H          -1.78217153452692   -1.33241500769182   -2.80565802514256
H          -1.02850972452420   -1.54425757710180   -1.46662500377247
O          -1.48451921876716    1.02786352008740    0.50552453035240
H          -1.10943397347580    1.25410288654001   -0.40421370941517
H          -1.64268454180371    0.06585021705136    0.48903999395355
H          -0.38361323275031    1.20106216744913    1.31386072088046
