    19
        -40.92453852
S          -1.50484093567698   -0.22485370450083    0.08628951232862
O          -0.94825492618129   -1.34224705249008   -0.66761276364161
O          -0.98223403100535   -0.20779581175490    1.44822868071524
O          -1.33124412202571    1.04310395371228   -0.59065036581185
O          -3.06224842823581   -0.46570216282173    0.19229688317864
H          -3.15210500466968   -1.30611189479175    0.63215126742484
O           0.64741514549217    0.03455974534843   -2.19060340261267
H           0.09590834075468    0.81837269915608   -2.29687707402516
H           0.04167304708612   -0.61864383032492   -1.75919118712515
O           2.11975317104730    0.44227284786873   -0.18582700157436
H           1.63183147435612    0.30596269155364   -1.10209661214826
H           1.89246775119526   -0.42302880878316    0.35524001149318
O           1.19520878741147   -1.55339288171293    1.04275162315318
H           0.85674118067779   -2.14535208789395    0.36073399306732
H           0.38220334421712   -1.09647531923267    1.37833348394898
O           0.52323814935560    2.04386359051593    0.92769379773876
H           1.58099831893627    1.19852824846736    0.29709166073583
H          -0.23775866971167    1.87373685407420    0.32000568978001
H           0.25124741695527    1.62320291351923    1.75204179338013
