    19
        -40.91907732
S           1.34911553631213    0.97083351606623    0.13426355213543
O           0.23694168658217    1.20233278198495    1.02706621852598
O           2.45351153520928    0.25671748703881    0.73104619145452
O           0.89368919240220    0.32464106618549   -1.11492674201303
O           1.89365418514499    2.39023666804003   -0.30705034248745
H           2.79641750158708    2.23889063018346   -0.57474280331817
O           0.75499920871925   -1.35759609986741    1.90804750107942
H           0.19489548328149   -0.62493567678774    2.19539575949034
H           1.58723151077462   -0.91479879374498    1.62789860630859
O          -1.61501828444820    1.38658551917302   -0.84360728153562
H          -0.90449517998904    1.22391229330234   -1.47756442707505
H          -1.12987532581950    1.52579710192649   -0.00632276531874
O          -2.50053015187285   -1.03389822138137   -0.45378827741834
H          -3.05692240544542   -1.28740545034462   -1.19248789462527
H          -2.29698953482396   -0.05977560974289   -0.56560610088001
O          -0.10482197781173   -1.83707062641312   -0.41789053531352
H           0.20849513724607   -1.81113891337670    0.57387186427220
H          -1.12048294725438   -1.61325448536560   -0.42164403718717
H           0.36018483069104   -0.98007319811069   -0.82195849611217
