    19
        -40.92079110
S          -1.26613849301957    0.03569432771920   -0.77660628497085
O          -1.01124242438409    0.62149123692940   -2.06724454069362
O          -0.68266236417130   -1.30054364167123   -0.64120527564421
O          -0.89893354319281    0.88408851388801    0.34857059045080
O          -2.83166490219736   -0.15946415363579   -0.65056653613893
H          -3.06307957507174   -0.60866215123892   -1.45752381081535
O          -0.73596122121832   -0.32836589537677    2.66864826517962
H          -0.50755100170595    0.32475506866353    3.33314725699034
H          -0.99065717552238    0.17232593386447    1.85795353136191
O           1.62809519683501    0.56384523981268   -2.19653460543575
H           1.90421463068853    1.20578866202989   -2.85352667010365
H           0.64778035029937    0.53327518772946   -2.23972259135449
O           1.76561318247389    0.82477190967413    0.42296646364563
H           0.83943919387504    1.13908732052242    0.45541376568011
H           1.95270150097753    0.74363257421681   -0.54175256002901
O           1.01042938948833   -1.43395420040171    1.15889377467326
H           1.51008445584639   -0.53121253083816    0.89024335742962
H           0.40444186624965   -1.16122817358833    1.92612904116534
H           0.32509093384507   -1.52532520816382    0.36271681862750
