    19
        -40.92078070
S           0.05555116374837    0.91438578631735   -0.49872815717881
O           0.80205090323735   -0.23726717664027   -0.96157600695582
O          -0.91959734990916    1.40045038953957   -1.41465780931005
O          -0.63091197637435    0.51910537947829    0.84362270262937
O           1.01075503488826    2.01903485852996   -0.06689164304084
H           1.45105240321461    1.73028402645270    0.81457873438392
O           1.86203259375779    1.07700887532647    2.12375012014492
H           1.01439204649424    0.89363297306899    2.54047696263404
H           2.21617084490796    0.20818090761632    1.82201036554164
O          -1.34521708503265   -1.52851505067284   -1.94997035741812
H          -0.47682713927042   -1.19968192193675   -1.65692236189564
H          -1.49088401230013   -1.13788749953611   -2.81474963718134
O           2.36276990304845   -1.24947481740367    0.95022608168889
H           1.89393603169293   -0.95576066655054    0.14425929655821
H           2.02016981141030   -2.11949415638515    1.16286287378296
O          -2.83123839093635   -0.22421800446473   -0.16090038744034
H          -1.56620728708804    0.19238488563058    0.59667020000896
H          -2.98602796060503    0.57170509754981   -0.68107177850411
H          -2.44196954449718   -0.87387385382266   -0.79298919867036
