    19
        -40.90627078
S           1.03202139138715   -0.37208818035815   -1.82329411533199
O           1.33511980075790   -1.05259486143906   -0.59839308308515
O          -0.33219425266352   -0.82158982659513   -2.35062032683853
O           1.12871479930036    1.05203270532320   -1.79400672710273
O           1.98897702501169   -0.90874510916246   -2.93692493288094
H           2.05352653075357   -1.85286259261060   -2.80863085601734
O          -0.33949177515759   -0.32981606143624    1.39157707951084
H           0.37996746366980   -0.70385415556624    0.85209520328776
H          -0.24323278710648    0.63274578089706    1.32778734999770
O          -0.43151199797568    2.14895175140288    0.07731415873861
H           0.20050001174793    1.87103531324549   -0.61355680633960
H          -0.24026089162296    3.06863321282033    0.26906745984026
O           0.20676990579562   -0.67577015133702    4.15043277826548
H          -0.00449769748892   -0.58516530573013    3.20903443955081
H          -0.16681955756093   -1.51329857600201    4.42809032109201
O          -1.99649436410641   -0.02526661403217   -0.65637019158143
H          -1.88177828935403    0.93570571561946   -0.61520481552187
H          -1.09037549336341   -0.52279926724784   -1.69682393823587
H          -1.59893982194035   -0.34525378775527    0.18842698270209
