    19
        -40.92048085
S          -0.22077837949666    0.66012311221397   -1.44571679857134
O           0.75132619827659   -0.33024419723737   -1.85571518910508
O          -1.51757642204227    0.11348668969104   -1.10226084523614
O           0.30142649176509    1.49163743675321   -0.35034338652051
O          -0.43031992165267    1.62440510411368   -2.68274954653130
H           0.39843589320591    1.56973641909991   -3.14944783081422
O           2.06030792583578    0.23371079475681    1.09473850262993
H           2.42502463710558    0.88389398846967    1.69888138540486
H           1.51796613058850    0.73690987926342    0.43491079219615
O          -1.40642956118413    0.81527872373949    1.50393956990397
H          -2.12819581968404    0.55824034531281    0.91665356346541
H          -0.77990555431693    1.27422758660589    0.89259401993408
O          -0.42869908834107   -2.17154130497148   -0.43255443367606
H           0.28155137062723   -1.81230918574671   -1.00563504511814
H          -1.17638575075190   -1.59452576128072   -0.68724823813422
O           0.08959323814708   -1.19328452232151    1.81027789818189
H           0.98371365923130   -0.72022052880060    1.62810147232040
H          -0.60238591860539   -0.40799575630957    1.81683201523144
H          -0.11866914870995   -1.73152881337648    0.91474209444788
