    19
        -40.91892624
S           0.72650363426221    1.21153149709995    0.24738184197886
O           1.15721004577554    1.70675491470878   -1.04228672826252
O          -0.70320493254312    1.17129982741463    0.43067402179392
O           1.33409659842716   -0.09795677271234    0.54955846668166
O           1.29944519401066    2.20219655771507    1.33877936864847
H           2.17114272534225    2.42417369737640    1.02493288840265
O          -2.07430297447859   -1.21112295634625    0.38277966462068
H          -1.75532149097679   -1.23253858445006    1.31336709594967
H          -2.09239489382750   -0.26278727867867    0.17742580066604
O           0.06838493639859    0.02434509528232   -2.69615568840605
H           0.64535118080844   -0.05159252846830   -3.45930628379778
H           0.43379946933128    0.76088929027510   -2.14217212546527
O          -0.63455735175954   -0.52941138995887    2.52798248556078
H          -0.68775354544408    0.29834599518387    2.02154216092123
H           0.27960726562463   -0.81340625498305    2.43630461791625
O           0.05228155733955   -1.70718451134039   -0.83616291973575
H           0.00503400285160   -1.14397586581180   -1.68944436616734
H           0.67659032277594   -1.12939960953870   -0.21727855128426
H          -0.90191173383712   -1.62016111279938   -0.36792175004561
