    19
        -40.92217217
S          -1.26405862771649   -0.51849146984508    0.20346800663789
O          -2.43651368823201   -0.33269488631026   -0.60233236631610
O          -0.21934271095673   -1.30049346817282   -0.47044513928106
O          -0.70897307255710    0.68406740147823    0.79872830922291
O          -1.70030147134181   -1.41413326073800    1.45496936155503
H          -2.47063919648010   -1.88835494720425    1.15598842093086
O          -0.72972362111978    0.70657617382941   -2.40354429557952
H          -0.43288962003682   -0.10715178645526   -2.81779522713908
H          -1.47984817294848    0.45101003284547   -1.83793245383234
O           1.06243266808961    1.89041843514101   -0.81450307677775
H           0.41602666376082    1.89049447960774   -0.08664555311742
H           0.51846717697317    1.63747768698824   -1.59293443991039
O           1.22299893343227   -0.19515119163972    2.32434420962482
H           0.41859867417176    0.22477809932731    1.94145891345962
H           0.92607192190038   -1.00657409959218    2.74080411576259
O           2.01648336815464   -0.30683940555272   -0.10810640314154
H           1.77236894282614    0.67674888428107   -0.44988595344382
H           1.96120400848373   -0.26355898430898    0.90423311367365
H           1.12763782358579   -0.82812769367188   -0.33986951234199
