    19
        -40.90916457
S          -0.78382565039528    0.90888041954768   -1.20828724822355
O           0.21472901517349    1.98686755174266   -1.61795639140980
O          -0.32513979957015   -0.36935570905729   -1.64849443450918
O          -1.14134074875111    1.02622934745110    0.17399249324860
O          -2.06391789898196    1.29946453606068   -2.03278188609946
H          -1.93976858576404    0.99736431304472   -2.93093672536700
O          -1.87764719390819   -1.23316954051235    1.48639564031723
H          -1.68620474203659   -0.44524411485475    0.94832673772801
H          -2.33682649680130   -0.91605632616420    2.26702882984555
O           0.70927747720511   -2.08735223399510    1.64126893610591
H          -0.24733299912480   -1.93787131056553    1.50821677160435
H           0.80272736507416   -2.55317042419135    2.47375889700468
O           1.41222453046497    0.47350250917701    1.18173909855391
H           0.52038408466101    0.82194419386106    1.05403914177702
H           1.29432068577772   -0.47966724518368    1.38250512915311
O           2.25202705561912    0.61737871255221   -1.26941288069773
H           1.16549517859747    1.52838599948804   -1.53676191770609
H           2.15037206907696    0.57289930235110   -0.27479962512635
H           1.88044666366875   -0.21102998073839   -1.59784056618952
