    19
        -40.91505827
S          -1.18632401214061   -0.19778753561704   -0.89184879619603
O          -1.21595627601840   -0.05737114413458    0.64796468745926
O           0.19120480070154   -0.11706364784385   -1.33313026106231
O          -1.89825842296787   -1.35402049838981   -1.29468786020936
O          -1.90480345030072    1.09880669793051   -1.34104300857649
H          -1.28019089111251    1.83213501353069   -1.14345713665542
O           1.74501848151503   -1.47173017590110    0.46575680841192
H           1.86067029659947   -0.69405635657820    1.03889649184858
H           1.41437724204805   -1.10786719016152   -0.36995137141882
O           0.34007720458453    2.45131426276278   -0.90230499790835
H           0.58096010893843    1.52306260772419   -1.10488011147658
H           0.68629788274811    2.99357744363519   -1.61481843743638
O           1.24592338759670    1.03371872502201    1.56499885917395
H           0.31206892735906    0.79832212217900    1.61684269649087
H           1.28539128273677    1.80957709347597    0.99770877156713
O          -0.57957970501532   -2.40209796926858    1.19615552787740
H          -0.94820251294917   -2.87227863182350    0.44192589676061
H           0.39060380342209   -2.24717648215157    1.00960272967671
H          -1.03927814010498   -1.01906432508758    1.01626950311869
