    19
        -40.90906093
S          -1.18715234781464    0.97585942779672    0.68288136956363
O          -1.68916483088215    1.80873524538162   -0.49521625419093
O          -1.43571074780310   -0.42284342626227    0.43514171170247
O           0.13559659727723    1.33686209764823    1.04337584242369
O          -2.16565801464860    1.41429091523948    1.83312494207542
H          -3.04157219423695    1.10383977004458    1.60956483100264
O           2.35379963809056   -1.45280843225898   -0.13053106971155
H           2.87403979807799   -2.23493473361159   -0.32162415418159
H           1.74035740628034   -1.69139137044588    0.59154795442684
O           0.29649466113675   -2.24131066354858    1.48062103046124
H          -0.33202363522103   -1.55344537517104    1.20063298314214
H          -0.12750137115362   -3.08145080612010    1.29276587991979
O           0.40917816121262   -0.41079007362965   -1.67740272985314
H          -0.33075879626399   -0.58617177363237   -1.08302378683371
H           1.20402602046770   -0.75778189531036   -1.21830991845338
O           0.50617357478213    2.18854918891608   -1.58645383357769
H           1.02931901069553    2.29363793339050   -0.78226708716409
H           0.59148223082961    1.22440458199837   -1.82879377759175
H          -0.83092513537927    2.08674938496641   -1.04603393156861
