    19
        -40.92161556
S          -0.62852436680409   -0.18798328144317   -0.83990123517985
O           0.36878832332952    0.73819866048221   -1.28375021453185
O          -0.22500770954288   -1.57513146812812   -0.85988891764588
O          -1.11335193596437    0.16152013978133    0.56681455778864
O          -1.90372439259414   -0.01271427835820   -1.69043581151033
H          -2.51349304859587   -0.72089012234543   -1.36193943826397
O           1.36242391559849    2.69073460930866    0.29069483645236
H           0.96718500768817    2.11383119172153   -0.38848828953032
H           2.08310264931030    3.16197317808729   -0.13033831804136
O          -2.83403893877226   -2.04630960510897   -0.36554689517434
H          -2.93130032989719   -1.73335131390621    0.53830779752099
H          -1.91048928131489   -2.32949480020800   -0.46209458068336
O           2.15963926128277   -0.97124550691288    0.25922054635986
H           1.39528515434428   -1.42849366221706   -0.12996625677910
H           2.51563849697296   -0.42656391585383   -0.44728564708972
O           0.88154850743174    0.64751928339142    1.94751013688720
H          -0.29830638077108    0.38640508198829    1.24288561031319
H           1.49647990127579    0.00487161948733    1.52131964707294
H           1.12814516729548    1.52712417040768    1.59288246201869
