    19
        -40.92219777
S           0.12097564546483   -1.42757330217801    0.43191649794739
O           0.70419667493447   -2.57797920931016   -0.15725337618583
O           1.17921662507746   -0.34870761014639    0.75016744796812
O          -0.92991588236071   -0.81164485029176   -0.36376746276990
O          -0.43050233632230   -1.73338534365374    1.83081593382481
H          -0.66465688942011   -0.83695179389822    2.21170133056487
O           0.59190504253210   -0.93403356276818   -2.58626336511313
H           1.11152312722734   -1.72480573106630   -2.41728624869310
H          -0.18083821947705   -1.01324007595505   -2.00593757103121
O          -0.74568780516772    0.74867454962386    2.51525743769874
H           0.15953494202087    0.97023785186097    2.74993510758649
H          -0.93748076756539    1.24191926811094    1.69117136873448
O          -1.17498971489581    1.74853474686667   -0.00256673854244
H          -1.18520619415252    0.78520917939001   -0.21444084662449
H          -2.04529230342333    2.08592460230605   -0.22268803455900
O           1.35923428379449    1.21958634411867   -1.20634547008383
H           0.55220925005430    1.73121026914553   -1.04997206521870
H           1.35220035448466    0.30670459699369   -0.03466533228069
H           1.16357415684626    0.57032009084415   -1.91977863317394
