    19
        -40.91617708
S           1.59499347083870   -0.83828538005324   -0.80856582063207
O           2.26937103088353    0.16294778709496   -0.01760526594042
O           0.96105775458673   -1.87239039641194    0.10599645477788
O           0.68473389815969   -0.34030301407483   -1.78293323898473
O           2.69159472886274   -1.68711380849702   -1.53998401686316
H           3.32802656703008   -1.92514725521666   -0.86965125701239
O          -1.32574980850060    1.41060100146881   -1.17377809057775
H          -0.82223806646668    1.79212736589829   -0.44171391091446
H          -0.69403069022681    0.84077638401393   -1.64092512777086
O           0.42454203079860    1.70643061557092    1.03449654865073
H           0.79741915819885    2.34609763601757    1.64427516931742
H           1.18453482724929    1.23847169234971    0.62038063030633
O          -2.80064398260735   -0.41141239155578    0.06766721502878
H          -3.60682545184298   -0.00814879476615    0.39291069161917
H          -2.36277863729168    0.26010862202567   -0.51164130080342
O          -0.66912750957618   -0.72223815624055    1.56154927355004
H           0.23230666279383   -1.42476079262651    0.76990548536992
H          -0.35831569512170    0.20529740450153    1.52964075062094
H          -1.52887029322708   -0.73305851101118    1.05997580987105
