    19
        -40.90627058
S           0.99322986085889   -1.81504874834366   -0.51699929555365
O           0.85844889499732   -2.16065090794538    0.96773912747074
O          -0.28262018776838   -1.44167227041814   -1.05347852335014
O           2.06317086040869   -0.89541585589564   -0.73606177375652
O           1.40000236005929   -3.19742842983184   -1.12312713545821
H           0.60974046024765   -3.73347943716690   -1.13577135502337
O          -3.16044793315567    2.52938369998984   -1.15995561026302
H          -4.00106739089135    2.33822026164382   -0.74176608636024
H          -2.51105514552709    1.94561336853310   -0.73960848246129
O           1.53209877976147    1.54758923772585    0.20646805226510
H           1.82937126641178    0.71393675893131   -0.20663567330623
H           2.12165971326042    2.23443174410579   -0.10930093975793
O          -1.18293697036000    0.87133428634784    0.01060216576807
H          -0.40139208629047    1.42263404209305   -0.14889979358266
H          -1.05053704985390    0.06538443238624   -0.51974419065395
O           0.20882581679031   -0.01528982838906    2.08673427287242
H           0.59040378149952   -1.31111043077549    1.51257249701556
H           0.92229466570512    0.60806312888975    1.88560255267707
H          -0.53918968621690    0.29350495842435    1.52163020128735
