    19
        -40.92136395
S          -0.86587921164680    0.03914018443228   -1.08117815778691
O          -0.87933905851784   -0.94073717945733   -0.01841551989041
O          -2.01505612487873    0.90970027775949   -1.10065308262780
O           0.40331001655889    0.78807119406678   -1.08748248564765
O          -0.87185732858641   -0.77209807185525   -2.44614311842308
H          -1.30680358533512   -0.19005788014734   -3.06284580987407
O           1.18715272229567   -1.09525232873811    1.58565843606961
H           0.32689659654566   -1.27832842332633    1.14339675725503
H           1.83601260461145   -1.27447241117584    0.86983329787568
O          -1.74770687707680    1.32614773265826    1.48817058373179
H          -1.97636400054850    1.31225925648054    0.53113645525847
H          -2.05260292212993    0.48215465847932    1.83283937856697
O           2.14024566522685   -1.25026249267040   -0.89865828851942
H           1.60468102310912   -0.46252795023906   -1.11007143522583
H           1.77936484912793   -1.96528473601007   -1.42558760088856
O           0.79913865850764    1.33861839572898    1.32743422494100
H          -0.19190173528089    1.44443325793050    1.56235743729866
H           1.06348418225307    0.30942806975526    1.58781606474624
H           0.76722451577936    1.27906843634515    0.30239285312693
