    19
        -40.90281248
S           0.54459246880839   -0.44299814075407    2.32357470978713
O           1.10630736916136    0.25655495202202    3.41766014966833
O           1.50374807612459   -0.34226288983412    1.10204893829112
O           0.09818012750792   -1.78841284484107    2.46969316952124
O          -0.72676163498453    0.35801039423598    1.79650384618763
H          -0.46136393953557    1.25376725405924    1.57015364855515
O           0.12390233598571    1.14759268469071   -2.99798851654295
H          -0.20470963238165    1.47817693489853   -3.83537305532178
H          -0.45366780139699    0.42307532982074   -2.73144472801892
O          -1.46824864162702   -0.22564814705628   -0.90489407272841
H          -0.90831089193497    0.53162328254358   -0.63096836805964
H          -2.17132558380566   -0.27301917728357   -0.25374328738931
O           0.35374408458396    1.75977044155220   -0.33219701047612
H           1.13100164330041    1.27317301660323   -0.03019286133816
H           0.45560378485561    1.85458601546399   -1.29399257472137
O           0.31295953164890   -2.12779529210065   -0.20267487891576
H           1.17699271817445   -1.08069387030968    0.46743226649323
H          -0.00067838927524   -2.47215164845520    0.64790882410321
H          -0.41196560519516   -1.58334830533801   -0.58150622909498
