    19
        -40.92174075
S           0.02079436980715   -0.67715068269108    0.58705615282867
O           0.82709382490838    0.21233282142325    1.39604614576341
O          -1.31369383524536   -0.02837318584033    0.26839119625535
O           0.65855200534705   -1.13468826098663   -0.61240090572760
O          -0.37092943967883   -1.90167827723537    1.44230544108226
H          -0.55055611313606   -1.54901861708528    2.35206484380981
O          -0.29358813425280   -0.56851353765540   -3.06524969006505
H          -0.90374472677301   -1.25767295878712   -3.33292205125690
H           0.15125350849197   -0.89066688420175   -2.25842444381481
O          -0.39173086779263   -0.50876003943559    3.63297758332271
H           0.10689169075577    0.06929626465849    3.02626940903824
H           0.21533864388567   -0.77356701577549    4.32871528885272
O           1.54136579451595    1.68175164117560   -0.76175121883313
H           2.00321985560226    1.01515929145856   -1.27704386086430
H           1.42853594639269    1.30035981116271    0.12454818909529
O          -0.97387079383084    1.54700561967821   -1.60438663495821
H          -0.84196717455886    0.90472578101226   -2.33955327358180
H          -1.24597776573738    0.70210679015075   -0.53438860596946
H          -0.06698678840497    1.85735144883567   -1.37225354503125
