    19
        -40.91567404
S          -0.78025468865765   -0.52375471104982    1.33226628209241
O           0.56595340441176    0.02459658179693    1.25292356924070
O          -1.40723881205192   -0.52162294210204   -0.05075214711203
O          -0.87263215833512   -1.78295628647720    1.97614150160909
O          -1.66418927460835    0.52872981043932    2.07619042432198
H          -1.55923767816058    1.35592375080356    1.58472976819483
O          -0.25286702703820    2.32520312365869    0.42953781693776
H           0.23607675498212    1.53014996499136    0.74234852972319
H           0.23773638618900    3.08944952210044    0.74129919303059
O           1.51826987035606   -2.29712719426054    0.28794096386502
H           1.48682239867345   -1.45115281867140    0.76140217756811
H           0.95054435243761   -2.88801306330299    0.79082605410322
O           0.54928124351314    1.39469747338026   -2.09347770489805
H          -0.07485809417044    1.63711937025342   -2.78029948739221
H           0.20882704302349    1.77506292858658   -1.26483991605644
O           0.20232654086660   -1.24364109574129   -1.76760764095550
H          -0.75778993871853   -0.88992278457506   -0.84651111109883
H           0.55964712469554   -0.35055538895112   -1.97779483042324
H           0.85358254273641   -1.71218622018540   -1.19432342262916
