    19
        -40.92079105
S          -0.54488454748701    1.37624374071210   -0.12242469427294
O          -0.22839950974944    0.97448820334479    1.24956347266195
O           0.29558601088288    0.67236300828498   -1.08107975397382
O          -1.95480080362832    1.30656293933680   -0.40757207316408
O          -0.11769151829956    2.89576712687669   -0.23988249247371
H          -0.76606910081687    3.34879721253280    0.29007392034761
O          -2.50242364270791   -1.21787586373785    0.15124887265634
H          -2.37523095899574   -0.25478120049296    0.00954341107995
H          -3.32237920643414   -1.44681306857801   -0.29036748307679
O           1.25177656112707   -1.00615672519672    1.35751925204738
H           2.03344004794311   -0.61031953188486    0.84549491709648
H           0.61833510477626   -0.17032885801545    1.46659469586355
O           2.76045405958560    0.22953430039800   -0.30073453599956
H           1.91542019729578    0.56477989452485   -0.68324120460849
H           3.22542221447241   -0.21500217853871   -1.01240220568967
O          -0.06107792167954   -1.91675411801679   -0.55563788099332
H           0.71863954358578   -1.56688460649403    0.62355405406428
H          -1.00367821312164   -1.89311979854304   -0.26750696547757
H           0.05756166320817   -1.07050046646969   -1.03274331618630
