    19
        -40.91469038
S          -0.97973271227731    0.97033478218265    0.01579141017403
O          -0.12241138613365    0.89662079573102   -1.14389236483377
O          -0.77051369193424   -0.32270017424045    0.84939696249348
O          -0.81492887633241    2.10366292953199    0.85624640166215
O          -2.44591521016123    0.84208435199782   -0.44908442878138
H          -2.44300773737990    0.17314366473292   -1.18372602542204
O          -1.79049999012839   -0.72321901656287   -2.41101287433425
H          -2.01481582987706   -0.46565106660350   -3.30867513278521
H          -0.93368679969449   -0.30745217766085   -2.20204609133813
O           2.27182288313614    0.44275231629285    0.15732866023116
H           2.23267781828002   -0.52089517182851    0.02185325715123
H           1.61249168969479    0.80160131834740   -0.45462951612620
O           1.28437132974920   -2.12465058571514    0.07664566445593
H           1.43351863914915   -2.70519460327873    0.82554962330860
H           0.41420145701248   -1.72387202073722    0.20465790395984
O           0.94409901613416    0.60432747854328    2.40712441886253
H           1.64081770006205    0.60532334126354    1.69376880095781
H           0.59022017749759    1.50144748308855    2.43208704472841
H          -0.10870849674454   -0.04766362508411    1.61261626566184
