    19
        -40.91579441
S           0.71596768894958   -0.78423543289383    1.16334966796632
O           0.42566027132357   -2.17321661537009    1.34260127467756
O           1.50686847556158   -0.08649701308083    2.11417317507044
O           1.30055924338605   -0.59617281276436   -0.25127222352855
O          -0.66502178993756   -0.02014604344910    1.07698252668313
H          -1.26100864882913   -0.59861467699009    0.55243109138576
O          -0.45471146055350    2.37181680462291   -0.42175676820303
H          -0.65948919496158    1.76627606226114   -1.15710604081102
H          -0.85590457742643    1.96920709412248    0.35534168398329
O          -0.81574510295574    0.10671822062289   -1.98143719745808
H          -1.41918346073781   -0.61056014953792   -1.76298862511111
H           0.06816953827965   -0.23298126147797   -1.79714326054297
O          -1.67972117601576   -2.06749298799328   -0.23990850074509
H          -2.42431046059184   -2.59112760133054    0.06587024107759
H          -0.88749642406283   -2.41496911737339    0.21959487665051
O           2.06106556312922    1.74694238939490    0.06779755882659
H           2.12496963108996    1.66212100862307    1.02776099816351
H           1.72486516370747    0.36389749289467   -0.23700078208087
H           1.19446671053077    2.18903463970364   -0.13728968615588
