    19
        -40.91687590
S           0.85766170202666    0.35571197258962    1.55121568615716
O          -0.54121361834373    0.66642912230010    1.81594340699109
O           1.04832980227073   -1.07301248608364    1.33759789040272
O           1.42074337008020    1.16029292909983    0.48872462867539
O           1.65303933277496    0.72190433770318    2.86970629641642
H           1.23447990183363    0.14480949499782    3.49957331174801
O          -2.27300616293104   -0.40068469896509    0.28322621341991
H          -1.59669961310416   -0.04210084731129    0.93562906908022
H          -3.00508683423426    0.21946449457952    0.30812613037393
O           0.10601777367219    1.86874386454333   -1.58228585170347
H           0.58791942633814    1.68696994506202   -0.72294929123055
H           0.78929909415058    2.10798063742125   -2.21225545419212
O           0.98622961852290   -1.82682745573905   -1.09544262512120
H           1.10077892714750   -1.50944026414714   -0.14846253307525
H           0.81252259747444   -2.76855675763688   -1.03164926032555
O          -0.93971047289543   -0.40159628362329   -1.84584612690199
H          -0.53584291779447    0.56073147966142   -1.83295069854765
H          -0.14092033300838   -1.03555467662219   -1.60952392511699
H          -1.56454160397234   -0.43526478783944   -1.00837686705450
