    19
        -40.91893421
S          -0.79910253835100    1.11756547216637    1.06232021827329
O           0.64821290211592    1.12085407817904    0.97746505312261
O          -1.46386894929137    2.06303429240249    0.20164761854259
O          -1.33434512185941   -0.24361088994577    0.90758606796044
O          -1.14870674498264    1.54230572177516    2.55121050093899
H          -2.02910564150619    1.89663927474112    2.47087970456469
O          -0.15010548049444   -1.20363539287374   -2.38226231090635
H          -1.03707740647002   -1.27960363477799   -2.73949389876257
H           0.00467168465832   -0.23227779106308   -2.23107479549270
O           0.15144631116048    1.32249557133500   -1.74868646190761
H          -0.55946576829578    1.67662066207296   -1.17639128705595
H           0.95407712513821    1.45457786541223   -1.23520950903273
O           2.16583993990470   -0.97664543118785    0.89216518783777
H           2.45395539965873   -1.17912820790852    1.78410674708794
H           1.69239665950804   -0.10607383105072    0.94277300988605
O           0.05375844419127   -2.05580713460823   -0.01041311993025
H          -0.59194774140619   -1.32803138727130    0.43501137868215
H           0.00650628021481   -1.81863400238855   -1.01795489623067
H           0.98286062608468   -1.77064522501163    0.31632078241316
