    19
        -40.91990201
S           0.45523864428886    1.43654226381332   -0.10868594039804
O           1.29927507684484    0.32394342938155    0.29809784018884
O           0.82609911780113    2.01639157461208   -1.36593671266930
O          -0.96544998950364    1.01949784405516   -0.07862018985965
O           0.59321739836027    2.53797423160575    1.01218120259284
H           0.62245679209438    2.05709037132819    1.83669845389400
O           1.15543726745275   -0.35871324297556   -2.45467841835748
H           1.93012574901483   -0.64942094265534   -1.96410983632424
H           1.06846586320879    0.59991528066233   -2.24641912172239
O           0.16933583232078   -1.96077710071261    0.87168872747226
H          -0.43259727376859   -1.62818124770758    1.56586383954997
H           0.82073687079242   -1.22765577823839    0.77344901074749
O          -1.35249964860134   -0.19254118661042    2.23695799327762
H          -2.27205979796276   -0.16825794756924    2.50671574028034
H          -1.28846652807207    0.34405647084619    1.41812610143127
O          -0.90963053173914   -1.19513661294508   -1.23450361678088
H          -1.11058928865136   -0.26167115829901   -0.83732833842554
H          -0.11147916533058   -0.99463333813162   -1.85629442763337
H          -0.49761639862565   -1.69842290063477   -0.37320228725746
