    19
        -40.90826132
S          -1.05401036524036    0.81307731196813    0.20273564757161
O          -0.19374280876237    1.83433151107237   -0.51665559092799
O          -2.41848130024525    1.21151421002029    0.26730240317664
O          -0.73166303147564   -0.53144833901538   -0.17410907935457
O          -0.49150693996190    0.93566378194679    1.70813136482720
H          -0.99576026837994    1.60842851618785    2.16281731135912
O           0.62609728371241   -2.53243242426163    1.04576759615026
H           0.00988264828854   -1.89325697111337    0.64695431345339
H           0.62623574858465   -3.30672498064988    0.48075242347093
O           2.11269813891496   -0.27501961838188    1.29981560837293
H           1.80776526268081   -1.20104365010320    1.32170530678462
H           1.40750431708339    0.22646949180975    1.72225798052859
O          -1.92812540963115    0.60536283111820   -2.31981667330399
H          -2.07854227851803   -0.32445050309896   -2.13734230513460
H          -2.54402333244126    1.09474224444159   -1.76792120570007
O           1.78168898986526    0.46841427827255   -1.19647444385610
H           0.66796982038432    1.36252876677073   -0.88007271469267
H           2.07149333236765    0.18851072385451   -0.28374572173752
H           1.32452019258086   -0.28466718082414   -1.58210220087221
