    19
        -40.90722484
S           1.79076644959650   -1.40816193416458    0.47851622674312
O           2.65305475663563   -2.51442926666531    0.68066880232146
O           0.39434754771219   -1.54499568494055    0.74650405986835
O           2.33755164595408   -0.16197067640108    1.17164499594575
O           1.90340804587016   -1.01143830432554   -1.07617018412518
H           2.76321040945042   -1.32705555083620   -1.34414037902977
O          -2.35152977702696    1.44864673655084    0.76093508055160
H          -2.09734243887867    1.72438784443968   -0.12660096042372
H          -3.01386924290339    2.06760172698338    1.07224477111535
O          -1.93613689818546   -1.06349615680675   -0.52861215302621
H          -1.17927871310705   -1.45654605975766   -0.06183890894624
H          -2.38319284004901   -0.51716000586824    0.12892828634143
O          -0.34344423503208    0.76340008933057   -1.61001878678762
H           0.41532172414510    0.26533651994340   -1.92586078826843
H          -1.00652242074729    0.07483941305982   -1.34914576770747
O           0.49757426695996    1.49493228788154    0.77960437077575
H          -0.28864891339169    1.27635725334506    1.29611713072691
H           1.61111050685406    0.56821793080930    1.07106114967088
H           0.23362013617715    1.32153382742209   -0.16383696577431
