    19
        -40.92019813
S          -0.61933920204151   -0.51507551488835   -0.74727649609488
O          -0.55785144823794   -0.95602097623225    0.62667405967535
O          -1.91955742503007   -0.15348532283237   -1.21212647570331
O           0.35728304816710    0.68784722033316   -0.88380347158136
O          -0.01301783380041   -1.55306656083365   -1.68205189168410
H           0.96398612790035   -1.72368716341443   -1.43481678343471
O           1.97488024324234   -0.74988631095490    1.38397774975610
H           2.11024665065363    0.19901572278506    1.43552539232622
H           1.01161333134099   -0.88883903102591    1.27394868599581
O          -2.75631458622214    2.06741819406058    0.04876372825435
H          -2.62938355982504    1.22263815604537   -0.42481777964882
H          -3.00438680515243    2.71379864746320   -0.61495519319479
O           2.37410231031661   -1.97693639611966   -0.91193492795469
H           2.39359463282538   -1.50288035661924   -0.04215334603728
H           2.49151738852824   -2.90993621453958   -0.71712837439507
O          -0.42846830578459    1.76421061169332    1.28661484676481
H           0.17214307064258    1.26183967798507   -0.07321183684026
H          -1.30177389236828    2.09202392544546    0.97360763985982
H          -0.61927373525961    0.92102170180690    1.71516445393600
