    19
        -40.92267743
S          -0.47341785607795    0.57067234952071   -0.76543183686477
O          -1.34010029293746   -0.56445576403148   -1.04582703951704
O          -0.49563965886496    0.87136461429550    0.68789714812607
O           0.88329033712143    0.37144800570435   -1.22199817732105
O          -1.04377427762789    1.82930111615669   -1.47661606690035
H          -1.96651621676482    1.87331155939577   -1.14058962508225
O          -3.19458627720770    1.16378585184566   -0.13056811281526
H          -2.77552901178556    1.25785602222142    0.73107264242281
H          -2.91897340857554    0.29312043972929   -0.45892329621412
O           0.32645510037426   -2.36527831943830   -0.12570169566686
H           1.01588304872942   -2.37106419056619   -0.79547919942287
H          -0.40687011251881   -1.82834824698429   -0.51078441880628
O           2.92272436072093    0.22558403672567    0.39812833351424
H           3.23289935192513    1.11152761201968    0.59541516987123
H           2.27540549729147    0.31594852810793   -0.34427092718774
O           1.00314019523348   -0.76973339644641    1.73099667649651
H           0.76027821918222   -1.55663328696260    1.11051443408698
H           1.89401185414239   -0.41704801670215    1.36620858703225
H           0.30131912665584   -0.01135891516379    1.39595743243625
