    19
        -40.91833711
S           0.50958337271937   -0.19332072681127    0.83998241517444
O          -0.31653799373129    0.98050329858167    0.91480820381219
O           1.98734129207850    0.18942970415871    0.84744170601542
O           0.25512076113582   -1.21865112629518    1.80040552156547
O           0.32843328806689   -0.78858286719539   -0.60058423113452
H          -0.69261135689457   -0.79990391007530   -0.72306344441393
O          -2.17784696299539   -0.59024075596276   -0.51425786294475
H          -2.40442949302782   -1.22203854825312    0.20938455915231
H          -2.14707416453442    0.27865277582269   -0.09602949451410
O           1.32918173484110    1.06839447760338   -2.40508277263107
H           2.05881798702421    0.73579270811506   -2.93122577524014
H           0.96747933061379    0.31354670680465   -1.91361404922575
O          -2.25378532793285   -2.14936366128840    1.62689321878898
H          -1.36060894034351   -1.84243136072709    1.87669208987257
H          -2.21977637455159   -3.10803471365072    1.62558070132004
O           1.69665194519218    2.48040432574861   -0.15392848551320
H           2.03958615781417    1.14952494126988    0.47589022571278
H           1.59936519065793    2.21147067801529   -1.09228255418379
H           0.80110956382042    2.50484806415213    0.21299004836124
