    19
        -40.90561275
S           0.56655625315416    0.58638255396074   -1.58353959913183
O          -0.49555949591306   -0.08300452830348   -2.26859762108500
O          -0.00227908061722    1.80212089669942   -0.84708590437467
O           1.40098490465233   -0.16948299639251   -0.71132100596011
O           1.49273710896342    1.23818477186961   -2.68209360300832
H           0.94656268700179    1.42565310915423   -3.44303222239935
O          -1.25845709419760   -3.15658268141936    1.21197639921887
H          -0.61514989042338   -2.80159161995323    1.83058177212973
H          -1.57570312393706   -2.40693420978165    0.69520389104378
O          -1.77623077566774   -0.54390340768385    0.04061826077974
H          -2.60775038634705   -0.06568048875891    0.01607879310110
H          -1.40458040810102   -0.50600019287023   -0.85767875880450
O           0.35909378771469   -0.55757160838242    1.78797770047315
H          -0.53745276494940   -0.53696505673178    1.41451630201242
H           0.91985575020856   -0.82914792831568    1.04660899870091
O           1.16922390083253    1.89297618380653    1.36647412670463
H           2.10432332964942    1.76831750450157    1.18360128847245
H           0.46883222722799    1.92524539034555    0.07567207579551
H           0.84499315218607    1.01798429383676    1.72403911302712
