    19
        -40.91224351
S          -0.53604862800036    0.12296480523405    0.39213465216327
O           0.41196037056087    0.10770512191297   -0.69519937497544
O          -1.42617625916396   -0.99423919134611    0.44836859377819
O           0.23022374296795    0.20678602524211    1.72613126486518
O          -1.31833971248830    1.44910771122845    0.35211985091107
H          -1.49386913313416    1.63905743082333   -0.63078528789763
O           2.63866622115979   -1.50052354217017    2.02107731963486
H           2.98710379991263   -1.72471905959380    2.88651659740084
H           1.68103020092840   -1.44558667914720    2.10748215731354
O          -1.49210314869514    1.46642847174338   -2.17985376004300
H          -0.59826654257831    1.10567982402330   -2.23687642911306
H          -2.09263411686129    0.69695427025367   -2.27904727815722
O          -2.70725535161073   -0.90823689209061   -1.91970766761599
H          -2.38142616127341   -1.03973361413208   -1.01011123855120
H          -2.50934437312193   -1.71660080271249   -2.39647271441832
O           2.46947488078103    0.96166262708280    0.82669222547700
H           1.12151311151439    0.66136312905682    1.51339841069208
H           2.92011886827651    0.15046546168952    1.12029074893736
H           2.09537221081744    0.76146490293417   -0.04615809037505
