    19
        -40.90901593
S           2.07834115667569   -0.61743256467425   -0.52844824953320
O           1.93862814068140    0.90377142316271   -0.33596254008477
O           3.31773817960026   -0.90265098329982   -1.15050958627564
O           1.70183883075054   -1.29765741937649    0.66666835799716
O           0.92739896203328   -0.92902631867207   -1.59507103875862
H           1.31371175117196   -0.73176659865589   -2.44521200643511
O          -1.88485227735241    1.50187189246691   -0.86323244861902
H          -2.69284237083837    1.93608909472524   -0.58418417082189
H          -1.22601613624001    1.66178063371095   -0.17034769883381
O          -0.72140694527356   -0.94386445186603    1.82135496110733
H           0.14654901190471   -1.33924301121385    1.63918703358559
H          -1.27533225450219   -1.18097796651535    1.04094496178502
O          -1.78379105664673   -1.23162724945953   -0.61121563233043
H          -0.97096109151779   -1.45203058256306   -1.07654946153502
H          -1.95285772575537   -0.29438773238270   -0.82236675320739
O          -0.02432314160000    1.42568096820228    1.21704545722690
H           0.30212019126666    1.87389310619910    1.99953868384544
H           1.15537890392038    1.11566649409293    0.27187208752890
H          -0.34932213825403    0.50191129599337    1.52648803328643
