    19
        -40.92019827
S           0.90728509104899    0.58485509684820   -0.19014265842217
O           1.38226886901136    1.08724145974705   -1.43883402162493
O           0.94136399142426   -0.85246855596284   -0.05250666609581
O           1.65607517619913    1.26093507916049    0.95057163730800
O          -0.56379889524133    1.03054744857581    0.04732588216047
H          -1.11840233957853    0.37737366050437   -0.48844653080499
O          -0.70610765309325   -1.46808263461664    1.93190761708553
H          -1.57239746635493   -1.28549687937136    1.56096442546758
H          -0.06885895226853   -1.42107703855401    1.18955084136305
O          -0.28991766142128    0.37205241675100   -3.41699601513507
H          -0.54945697200855    1.16389195123088   -3.89179485264523
H           0.44465845571291    0.63358752496988   -2.82870360472721
O          -1.51703766381707   -0.83660109132895   -1.39822456771442
H          -0.81493290854543   -1.45969910718703   -1.17493777891930
H          -1.26621629576691   -0.47826309704733   -2.27963320832671
O           0.60667775960765    0.47501022490151    3.13062130129605
H           1.23890073191307    1.00615184844658    1.84814859002642
H           0.01345934751805   -0.25444009007740    2.81813836152327
H           1.27643736561561    0.06448178268540    3.68299124838942
