    19
        -40.92135397
S          -1.01834769462842   -0.45808433311993    1.08996141943189
O          -0.07270475870764   -1.53228191924834    1.29935215107445
O          -0.58252817047819    0.78778217406040    1.72234956038092
O          -1.35584178435802   -0.25562403228289   -0.31012190397223
O          -2.36305172500205   -0.87133129887110    1.80513306572275
H          -2.07738890141158   -1.08292961382308    2.68847662100048
O           2.03305997991208   -0.72598895146039   -0.03438179507309
H           1.66143765012232   -0.98329090854032   -0.91184927188325
H           1.40866201356252   -1.14676795496669    0.60288390197342
O           0.38051436593705   -1.49995208204348   -1.94602895886304
H           0.21736869430615   -2.44467214766690   -1.93367706927454
H          -0.35408947330043   -1.08969338190144   -1.44921423862009
O          -0.44181816665329    1.97152668477641   -1.40751933910622
H          -0.89038932932582    1.14372817428678   -1.12101057529865
H          -1.06754153277169    2.68428985385680   -1.26597186252069
O           1.34460574931958    1.61466560592016    0.38016546349448
H           0.79495978330180    1.88364624172937   -0.43315337050471
H           0.60476081032372    1.36861704112342    1.06697629677026
H           1.77833245987506    0.63636086818381    0.15762991527255
