    19
        -40.91885170
S          -0.01968759213575    1.03778025728045    0.65626323630196
O          -0.04780625365551    1.52636476483554   -0.70626307106091
O          -0.74537469905823   -0.26831275268476    0.72597119707364
O           1.30658463203380    0.90392297746987    1.20593090409871
O          -0.81788139887045    2.01446123592802    1.56560666937633
H          -1.73775087847779    1.92725763144851    1.24371757236030
O           0.53962358682666   -0.18998264482978   -2.53337424517939
H           0.38538488813130    0.57152619654530   -1.90738277740390
H          -0.19440422781222   -0.17689465739137   -3.15127230842658
O          -3.07648646667521    0.97229867905490    0.66567221555925
H          -3.67435857763818    0.66103588034111    1.34926176644424
H          -2.37624596110035    0.29799211310228    0.57564682724642
O           2.68066281851032   -1.19061060393228    0.54725483379873
H           2.92166274251946   -1.62098066487523    1.37023781922445
H           2.29069061005080   -0.31223039664093    0.80009389855855
O           0.55823925672204   -1.85687224610546   -0.64645519640430
H           1.49000981062819   -1.73251678323734   -0.21347084598804
H          -0.06882800003680   -1.26318704275041   -0.02327977423263
H           0.58596569011765   -1.30105190360248   -1.52415870121749
