    19
        -40.91868607
S           0.12164934513326    0.27544177863321    0.88313075324806
O           1.13464808717942    0.14739524914000    1.88284972471105
O           0.37964874964460    1.51400662655232   -0.00128424050700
O          -0.02797777234709   -0.87449304683062    0.02151486225795
O          -1.20655297983407    0.60286039189080    1.56787458075152
H          -1.93792540717718    0.74580814109522    0.87798085485948
O          -3.07893370843447    0.78181631338599   -0.16010454364908
H          -2.90011465719333   -0.02891656312185   -0.69379765004022
H          -3.93740549093353    0.66477590414961    0.25356174455935
O           3.50853815747672   -0.12754342661908    0.67179420733682
H           4.10152557471457    0.52297523688611    1.05298937736145
H           2.71120451595874   -0.13521708517571    1.23672276749591
O          -2.27926113868685   -1.50499786360048   -1.22975560397629
H          -2.53176173696735   -2.38277220670885   -0.93731944762035
H          -1.38595042767265   -1.34177376627392   -0.86090611176182
O           2.03150470247937    0.30544738440253   -1.49974795742454
H           1.04415447678704    1.20023647440132   -0.70140388595733
H           2.74458854694128    0.13854301660616   -0.84110079097283
H           1.50842118295471   -0.50359256880605   -1.52299865066138
