    19
        -40.90324969
S           1.12899262515813    0.11152908760743    2.08108542797142
O           1.29226315676017   -0.54927409409886    3.32475443869710
O          -0.10960633830788   -0.46441700362633    1.34317000766244
O           1.07374464588719    1.53419587270177    2.01726528386407
O           2.30933794152087   -0.35818212000087    1.12988177341169
H           2.66921898385373   -1.16316667082128    1.49540659397860
O           0.86160202501592    0.42729461977113   -2.13146309244024
H           0.53235492941225   -0.47061888863581   -1.89048578706394
H           0.61147426903557    0.56882986324889   -3.04609710058508
O          -2.61593788694384   -0.16693798080731   -0.83929175553352
H          -3.09604450410396   -0.34130221598563   -0.02786244974031
H          -2.11758451747693    0.64881139780279   -0.69676491900953
O          -0.40398299669532   -1.74811698100341   -1.23043673272562
H          -0.18368431746840   -1.79933621756706   -0.29524202272503
H          -1.29275088865497   -1.34603538855679   -1.25942857090160
O          -0.47411310025030    1.53267519319211   -0.16617932683935
H           0.09522327985077    2.02730115648350    0.44361522799021
H           0.08880355502486    1.27348328140965   -0.94467175418354
H          -0.36931085160573    0.28326708884881    0.69274474813013
