    19
        -40.92007384
S          -0.53256191786770   -1.07968367349022    0.70618471889936
O          -1.37656477636970   -0.36877038593678   -0.21784883628589
O          -0.00530164241165   -2.33307222865464    0.21483119500662
O           0.54365885906103   -0.20828937046607    1.21938961243916
O          -1.42261723346347   -1.42176162774860    1.97305069111476
H          -0.97703173404020   -2.16527469646163    2.36800324944692
O           1.22116529240351   -1.48841505009796   -1.92479422363207
H           0.69768780827765   -1.89065139661111   -1.18793108946403
H           1.93715337053192   -2.09905590710749   -2.11356546568280
O          -0.87760059908325    2.06407657052897    1.47809490720469
H          -0.31940049350647    1.26773048660665    1.55510745427144
H          -1.77107972183168    1.77758766038592    1.67726316654438
O          -0.55928884859468    1.94199438033093   -1.15860428936582
H          -0.67584666329825    2.34319507510026   -0.26599788042495
H          -1.06719375077758    1.10347744069986   -1.07922004103117
O           1.59809715893806    0.78319158064292   -0.83287187733075
H           0.71547732778905    1.39843185068974   -1.08767184252742
H           1.32543539443880    0.42712777018579    0.09178289751379
H           1.54581216976002   -0.05183849859336   -1.41520233649941
