    19
        -40.91469035
S          -0.90710143697399   -1.02493351803469   -0.18749043305036
O          -0.98405595198522    0.31416867508148    0.59457070326915
O           0.22683436507050   -0.95525803277085   -1.07889416674166
O          -0.92748452207812   -2.10808843403118    0.73127714028658
O          -2.19804185143544   -0.99957054759892   -1.03298135108722
H          -2.02598591431757   -0.36266334605445   -1.77574688774119
O          -1.10468587046696    0.51866400948924   -2.83007018974104
H          -0.31901349946820    0.15885440449702   -2.37851521412538
H          -1.06719947725295    0.21597021286309   -3.74082445235132
O           1.12387322139346    2.19185852869999    0.28230606867141
H           0.26898845293515    1.74812268692549    0.20140910294826
H           1.04172140037147    2.81945819145633    1.00298544387912
O           2.16353394885979   -0.30665060735876    0.78115435124222
H           2.12005729309872    0.64580324093760    0.58255773686586
H           1.70872240309083   -0.73070595573021    0.03868873201435
O           0.28880940409932   -0.44347274849881    2.60272719201882
H          -0.01996150974551   -1.35726199134519    2.58471094105198
H           1.15074341827847   -0.43625378420316    2.10166896772250
H          -0.53975386314795    0.11195900598571    1.52046631456077
