    19
        -40.90722450
S          -1.54394711376362   -0.41804905386499    1.68926126245651
O          -2.71074630963261   -0.66821197363846    2.45371315620937
O          -0.28964916204947   -0.77490775891900    2.48388466548941
O          -1.44633777620323   -0.93575862413324    0.36145762699518
O          -1.41695761648764    1.17938468681776    1.54917593290441
H          -1.89317743708714    1.52574637683964    2.30012781105786
O          -0.86091546320075    0.01031992737834   -2.09817101991655
H          -0.16570494039528   -0.60563617630553   -2.35872742277682
H          -1.27364742983858   -0.38855230611209   -1.31340019324493
O           0.54555622375180    1.64577830532814   -0.55182552712077
H          -0.09383024504806    1.98912253879551    0.07807877413125
H           0.00236639719592    1.16120178650637   -1.22403503860556
O           1.84899588663539   -0.87984943825864   -2.00263791168582
H           2.59621552214382   -1.19594186840499   -2.51296280199455
H           1.95637598728320    0.07174687241880   -1.89744566818212
O           1.51708493291167   -0.40742639785400    0.78580680499572
H           1.48328098137717   -1.07624977554608    0.08973892556404
H           1.23811415727853    0.43544347284613    0.33661765238083
H           0.50692340509912   -0.66816060440397    1.83134300139673
