    19
        -40.92135407
S           0.25968386395172   -1.53701963382145    0.08517409809945
O          -1.02524675986795   -0.91008585393021    0.35195605474525
O           0.69799610644482   -1.37895506012657   -1.28428443539125
O           1.27818170212295   -1.10026804595500    1.04093353850600
O           0.05011314348432   -3.08105657094098    0.33412937366397
H           0.87753043025567   -3.45569233520873    0.04821452000570
O          -1.72341684020080    0.80744669103867   -1.59771990541406
H          -2.00533852662843    0.31988362018323   -2.37363101029776
H          -1.61350358435118    0.14737205006929   -0.88567506159070
O          -0.96203167328314    1.23475231875379    1.89993627892695
H          -1.14210564890608    0.42720477227492    1.36703373533324
H          -1.02137173066544    0.97348837192651    2.82073160215977
O           0.88612242087845    1.22072012811254   -1.54449854519611
H          -0.08670842940849    1.34990183013176   -1.65086039183421
H           0.98927853126196    0.24248782854799   -1.61948612358097
O           1.37148959578065    1.38275986598916    0.87652978151501
H           1.20497218381827    1.44896110786776   -0.20231355120336
H           0.47170085995287    1.54810078952774    1.32250527122241
H           1.49265434532485    0.35999813554887    1.01132479073304
