    19
        -40.92079064
S          -0.54721365522781    0.92378180048737   -1.02628347296958
O          -1.36907785181196    0.17678273106631   -1.94331469524141
O          -1.16270654969657    1.06271743867478    0.29482441653811
O           0.82158269257328    0.43820225305676   -0.91745229237060
O          -0.41807538760702    2.39176545272122   -1.60377043397285
H          -1.31769191822880    2.62832721849363   -1.80673665959319
O          -1.71379722189632   -2.10272394010001   -0.65051721056089
H          -1.69008351612107   -1.25026439367704   -1.13690594722790
H          -1.97137922118683   -2.76849096469635   -1.29103387972929
O           0.64853001926360   -1.82198582589449    0.48466601411503
H          -0.23203883275793   -2.13834629875522    0.17371050433500
H           0.90888318654001   -1.15939736450561   -0.18699243298944
O           2.16883320745230    1.31904714622930    1.15369768441110
H           3.05449048087370    0.95264669482492    1.11324777809496
H           1.75269378987570    1.14702928559762    0.27622895159227
O           0.17572691550677    0.01905630582252    2.09667745161865
H           0.37136781611111   -0.88311525152540    1.56223661870615
H           1.01826557987375    0.56992949759465    1.96661652420264
H          -0.49830950350139    0.49503818458167    1.44110107103228
