    19
        -40.92267736
S           0.95922116066546   -0.40677304544647    0.21805509824519
O           0.56143060506641   -0.54144842126032    1.61161729589008
O           0.32151463786604   -1.37322339180451   -0.64686268752709
O           0.68349850227422    0.97407495799937   -0.25044683650863
O           2.49726575865487   -0.60143417380538    0.11096268908957
H           2.84842288852792    0.06035501554149    0.74740206687393
O          -1.34958941934087   -0.70677057626888   -2.53655301985051
H          -0.85803818289647   -0.48301790082684   -3.32926333534959
H          -0.70067834190147   -1.11657398377894   -1.91266512985836
O           2.49697476269062    1.30778885424546    1.91017260871017
H           2.06582385656740    1.95518094963679    1.34302869078020
H           1.78356944460530    0.74393724701115    2.24975638403034
O          -2.00645735455735   -0.67991481911447    1.10713593487774
H          -1.08919959405520   -0.64897616800988    1.47035213975733
H          -2.09077461714295   -1.54848233753907    0.70407771036705
O          -1.72211009152676    1.04528745823269   -0.73511374331814
H          -0.65912960946652    1.14910300621454   -0.53544628726877
H          -1.72917320336209    0.44287449026726   -1.56434930593029
H          -2.01257119272585    0.42801283870057    0.03813972709585
