    19
        -40.91955064
S           1.15572371852328    0.16791016657807    0.01942091869790
O           0.76618801157221   -1.02211818535875    0.91624013417129
O           0.57802971950884   -0.03745199322846   -1.28882162214533
O           0.83248743451008    1.40608732772875    0.64644393128620
O           2.68609016769572    0.00501607316183   -0.07298407793666
H           2.80131426274746   -0.84897994369188   -0.56140313250015
O           2.18507484846015   -2.18738217812053   -1.37118381507160
H           1.78751339354613   -2.79058306367000   -0.73703681250934
H           1.46570153533322   -1.63073334417453   -1.71138372525516
O          -1.86110818200532    1.70430073041448    0.98005029060530
H          -2.09587199486250    1.56565800848557    0.04074290546864
H          -0.91369574599981    1.91376074363263    0.96837633941597
O          -1.84158357579851    1.13997513868016   -1.66479275709522
H          -0.99781406027936    0.65680941499035   -1.61256052626631
H          -1.71512720503967    1.83411018932338   -2.31419124749735
O          -1.49018297817543   -0.65785708144979    1.94190578558212
H          -1.39994663851385   -0.55590389618130    2.89236730795235
H          -1.76320395311599    0.24738657741082    1.58602365928715
H          -0.17958874809779   -0.91000466464022    1.34278642374915
