    19
        -40.92343620
S           1.45199341981973   -0.29866119367862   -0.80470441387845
O           0.55902979484178   -0.28271750488454   -1.94374858396569
O           1.79825595164214    1.05332385543795   -0.36374994906205
O           0.94448095287698   -1.10822657081460    0.29172984688818
O           2.79939523120982   -0.97319356656304   -1.26436746980913
H           3.08444727395192   -0.40851771277783   -1.97603353566278
O          -0.28901615993207    0.06320389243074    2.34770295463819
H          -1.11928542236137   -0.41960422696991    2.26991563477403
H           0.34963637725791   -0.43869043145033    1.79957539463152
O          -1.68068917760972   -1.50439787721123    0.29773164225269
H          -1.96951371740680   -2.28689694882926   -0.17384957322022
H          -0.69970028721614   -1.49530473414281    0.24062192038920
O          -1.61977083029420    0.83456178869083   -1.02247112788408
H          -1.93637646585756    0.03693107458365   -0.54909798257730
H          -0.87427793332019    0.49817867286073   -1.57476034674523
O          -0.23958568477551    1.99843203832185    0.69527413149948
H           0.68306594464672    1.74781744015701    0.27124018728403
H          -0.92843528431045    1.62926409203792   -0.03392630983470
H          -0.31365397248432    1.35449790378325    1.49291760026851
