    19
        -40.92136404
S           1.10799168457828   -0.11271043357967   -0.82673844377574
O           2.28029774504822   -0.84806032557663   -0.42190035297185
O          -0.06792566318538   -0.98447658207242   -0.99573737391260
O           0.79299194127023    1.01733727844574    0.01799256777119
O           1.39962108850481    0.47012623239731   -2.27453249839901
H           2.00780146858334   -0.15460909894864   -2.65935161409967
O          -1.00955130351162   -1.19374115769465    1.32033722643065
H          -0.72963716790294   -1.29125683334463    0.33706097378526
H          -1.39810759608782   -0.17053190647365    1.32604902039150
O          -1.93595599932703    0.85431858324401   -1.57570261894502
H          -1.50871931537480    1.51406250153078   -2.12472891961059
H          -1.31083958234296    0.10743813202039   -1.51536327026064
O          -1.61032272517319    1.19442763926484    1.04702368536640
H          -2.07413033826252    1.18847808982498    0.18063347637271
H          -0.68192527658252    1.39773217516735    0.78981271541529
O           1.41069272393383   -0.87970363120151    2.06520681635484
H           1.86742771589411   -0.99087264757348    1.20056097739749
H           1.56286557401419    0.03596808786711    2.31516413678645
H          -0.10257498279055   -1.15392610172449    1.79421349534444
