    19
        -40.92071445
S          -1.06022774471035   -0.03352118028562   -1.03455311336509
O          -1.01276698945746   -1.11807469906425   -1.98792158359962
O          -1.32194167328642   -0.45267453754480    0.32297952027542
O           0.15875099532986    0.79748811376682   -1.09379561516484
O          -2.24438578214340    0.91365687823994   -1.47866766921316
H          -2.27227901883925    0.81644089626151   -2.42630926922989
O           0.38768369826804   -2.63028652792539   -0.37364414471467
H          -0.12159361535563   -2.21462415559340   -1.10909545260258
H          -0.25779979282649   -2.77926099070711    0.32354315160448
O           0.41147842254529    0.19191841906612    2.18991271507233
H          -0.41319236574725   -0.07916767154677    1.72447779618536
H           0.44448895014611    1.16214229953004    2.05250492676400
O           0.38550351029542    2.54105273783507    0.93248909776228
H           1.01616057927211    3.22280792714235    0.69616645425787
H           0.21383611386827    2.02477130925125    0.12000290846365
O           1.75884244741020   -0.58933619642313    0.26599853621455
H           1.26569198841906    0.02842223483344   -0.38908248888964
H           1.30105118149022   -0.28800367519508    1.21788620397319
H           1.36069910506024   -1.51375116157832    0.04710803603375
