    19
        -40.92453851
S          -0.34009077166013   -0.96153509891180   -1.13240546820102
O          -1.08048406634175    0.27378254787656   -1.36505646405362
O           1.09733319107281   -0.72259433032632   -1.19155308892534
O          -0.74211830065708   -1.62807836998865    0.08842475459929
O          -0.69694289299581   -1.94375984680559   -2.31677241144189
H          -0.42291886628890   -1.48689132962861   -3.10670189038443
O           0.76893314599414    1.96232855080488   -0.69765771309834
H           1.52655824568546    1.45339030860927   -1.00936506655367
H          -0.00911840529488    1.46246452559304   -1.05405154424240
O           1.58454097262303   -0.93673797063123    1.35377711150024
H           0.93976258624341   -1.62311077807898    1.56116397944656
H           1.58643746545280   -0.91166789264428    0.36433604653040
O          -1.88301853002072    0.38255122842727    1.27181786375934
H          -1.59345095498981   -0.50112694844905    0.93599375100593
H          -2.20216219113566    0.83088255357295    0.47960672617285
O           0.43319089152276    1.27813497842279    1.70361927826766
H          -0.56959164399674    0.98249863767234    1.65321057306147
H           0.97875511062826    0.38471906547723    1.69322027910135
H           0.62438500413942    1.70475015898944    0.76839327349963
