    19
        -40.91188307
S          -1.56048576146502    0.54981084737252    0.55229427735648
O          -0.56013666049301    1.44896105694493   -0.17967501076299
O          -2.58697077079540    0.13904461594393   -0.34886419185204
O          -0.87157224224312   -0.46579652894538    1.28712761796247
O          -2.17446153822870    1.53745109648145    1.61057725341021
H          -2.87353510473336    2.03263522733384    1.18743660484005
O           2.73767310814824   -1.11690335500969   -0.05483421671893
H           2.44829811705319   -0.42254602792258    0.57564281780960
H           3.22638645364101   -1.76193397531891    0.45855715140195
O           1.58137004603940    0.67272421637861    1.60431329140130
H           0.73630893780161    0.20374832538218    1.70193274476172
H           1.38089444301219    1.45708433889026    1.08656894411567
O           0.27819479591062   -1.75387366775332   -0.91126406358946
H          -0.17939548164779   -1.58789161440836   -0.07615020360153
H           1.23356097974982   -1.60888006937846   -0.72208329596352
O          -0.59554449249032    0.22120281091972   -2.31328620670466
H          -1.54303094781085    0.04314096390661   -2.34821668927639
H          -0.49650737456282    1.03120680715623   -1.17101644650864
H          -0.18104651698892   -0.61918505783491   -1.93906038802814
