    19
        -40.91892609
S           0.25869454062628   -0.08958937768767   -1.40880931535819
O           1.19275185298054   -0.69095421432744   -0.43843556318357
O          -0.66035713924212   -1.07616427479138   -1.93409053662001
O          -0.36899782214712    1.08700272710249   -0.86069145194854
O           1.16107292835309    0.39414163020169   -2.61385938272932
H           1.36031052241153   -0.40209045301573   -3.09764109082716
O           1.79154576707871    1.88630687354253    0.54735275507583
H           2.29600200879641    1.07017705851239    0.48178333670368
H           1.13380743262750    1.82722243196358   -0.16579524214506
O          -0.50228047813570    1.48667895203233    1.85747422663231
H          -0.93748953186493    1.61449312971292    0.99963514999202
H           0.41295821111626    1.80946747668043    1.69460239330714
O          -2.10018214827955   -1.68811317187767    0.13925068414893
H          -2.36687410828904   -2.60576518895978    0.05049887409192
H          -1.66507621156939   -1.44002135878919   -0.71659675155711
O          -0.16104877939399   -0.97953455396682    1.62028628618862
H           0.51031152839627   -0.92553680831944    0.81249812567871
H          -0.33873664439965    0.04465145606093    1.85799219939063
H          -1.01641193011003   -1.32237231481804    1.17454529345298
