    19
        -40.91401978
S           1.73869149424086    0.28144517937086   -0.43596850172161
O           1.99780307395945    1.68406580666838   -0.54447148153742
O           1.59241251898805   -0.09614815026578    1.03049484183207
O           0.68133820769813   -0.26448212915701   -1.22258025326508
O           3.06714534744936   -0.46336274052931   -0.86637388244996
H           3.79371595015127    0.09937231542173   -0.60625917750337
O          -0.58896124847104    2.00820192400285    0.21571880613064
H           0.35950651651344    2.08504142777051    0.04103428694634
H          -1.02616505627752    2.09731307394593   -0.63563367130730
O          -1.98359250074349   -0.40400356050638   -1.70274294505267
H          -1.01727662550244   -0.32371051556359   -1.61685897620103
H          -2.13889190167729   -1.23888954973876   -2.14739003486961
O          -2.08764156792797   -0.14875785523058    0.98681849984012
H          -2.29338552234654   -0.30218960301819    0.04306811544240
H          -1.61142997861003    0.70043622158710    0.98049583167402
O          -0.17742622030694   -1.76851853516042    1.51306512420154
H           0.86958097718160   -0.85051526947227    1.19907447608464
H          -0.18303042250091   -1.90135536501711    2.46430902088535
H          -0.99239303182937   -1.19394266509433    1.30419995087034
