    19
        -40.91285593
S           0.06494450249768    1.09965704036846   -1.31032129880194
O          -0.88273013127250    1.17894094278879   -0.20356459987811
O           1.43196705685443    0.92324257743480   -0.80487357289416
O          -0.28447704537023    0.16199421571760   -2.34036505935640
O           0.03033033768621    2.54297189069105   -1.97040977937108
H           0.44367015690447    2.44171025640576   -2.82323248351180
O          -1.22250389022580   -1.30556451999166    0.87531237982962
H          -0.89961675989523   -1.86608964104126    0.13828787083267
H          -1.33670427639802   -0.42470872568927    0.48008539609497
O          -0.30329146396495   -2.34689796832214   -1.41684191877148
H          -0.21338610497970   -1.46262017146049   -1.82541916708527
H          -0.86395167602949   -2.85597459726627   -2.00536313918192
O           0.64258465460679   -0.81464140228648    2.58232353339933
H           0.25045738911653   -0.83426301006095    3.45750805734205
H          -0.06751899681778   -1.13741300146433    1.94121661397304
O           0.91927763130672    1.43468413548841    1.51339272709140
H           1.39292771722427    1.22543881130054    0.57314039485250
H           0.00168233648350    1.52576604344218    1.10396954104337
H           0.89633857227207    0.51376709394486    2.03515451439488
