    19
        -40.92343667
S           1.48223310046556   -0.57768105750528   -0.56114271096033
O           1.85454959767440   -0.55435294953054    0.85415558323473
O           0.65594962797719   -1.72149259659489   -0.88319605307974
O           0.88311755296895    0.67940061129416   -0.98066656810958
O           2.82760644724261   -0.71692377172572   -1.36901973296158
H           3.18345820473929   -1.53765190249698   -1.04274668428343
O          -1.52751780289713   -1.33389573145788    0.50410994095258
H          -0.76530438893868   -1.70545356407156   -0.00093001522354
H          -1.90010518535453   -0.65879786707081   -0.10089810869118
O          -0.41886319909134    2.18884823695410    0.79364151003557
H           0.23037632215638    1.86571192663474    0.13471569022768
H          -1.26099032685357    2.20948478326556    0.32581150513586
O          -1.75120955244492    0.63763417640839   -1.30681720834860
H          -0.76886479488214    0.64381110942616   -1.33425000153772
H          -2.04278201218763    0.41340863770428   -2.19154066921566
O          -0.20324922296438    0.02621464820336    2.11828490725427
H          -0.86348063762137   -0.59691624519454    1.55318726393566
H           0.73161483306237   -0.23844490716889    1.73187675900186
H          -0.34653856277305    0.97709646310541    1.75542455310482
