    19
        -40.92007399
S           0.00590573097284   -0.31360203555178    1.36045253132699
O           0.17473031173065   -1.73532056878340    1.56136827361565
O           1.15895136635262    0.26794597354680    0.64408407804153
O          -1.23498396134294    0.07188230278593    0.74166464774372
O           0.03302997276097    0.35985069012162    2.79546349470464
H           0.65349643755182   -0.17278645477997    3.28403757619964
O          -1.17489035976422    1.14071145144996   -1.65687023371684
H          -0.75784757212080    1.95029368321916   -1.28004741360460
H          -1.52276508329430    0.69135659305102   -0.85438644795528
O           0.09958315172803    2.68203283051539    0.09460534270194
H           0.61739543916675    1.90088876384088    0.36508696755267
H          -0.50785817565166    2.85602154031533    0.81637335549192
O          -0.10066015393702   -2.57118309213641   -0.89204729200595
H           0.38472872890424   -3.39464064897571   -0.97837505693382
H          -0.08580716386975   -2.33725456257848    0.06917557110604
O           0.79323401522983   -0.34942226652838   -1.76224293599039
H          -0.08531215666238    0.30988585220543   -1.88253515176567
H           1.11965466760959   -0.06910638941878   -0.82871515126195
H           0.42941480513962   -1.28755366414880   -1.59709213714727
