    19
        -40.91226855
S           0.27779639627153   -1.55528165226438    0.75683093035945
O          -1.07094672543509   -1.58181459949415    0.30373598944045
O           1.31694802517965   -1.98646460536545   -0.12172438994896
O           0.61172908883208   -0.15356191582806    1.29954447871990
O           0.37746607110177   -2.44016419218669    2.05861393660672
H           1.28232981907675   -2.73981832969377    2.10809759930417
O          -1.85542500467532    0.34366299692769   -1.47990128512544
H          -0.96091760703088    0.28238185700264   -1.88761987429395
H          -2.00027630542970   -0.53473441592213   -1.10386589274019
O           0.73529474005219    0.00639610990257   -1.94616886994365
H           1.07329460536095   -0.77685437727582   -1.49304743816149
H           1.17817911582424    0.77684928179096   -1.54684933206932
O           1.53535496912651    2.05843183901427   -0.28463415566804
H           1.72668755570891    1.48476188119854    0.46340966519921
H           0.67546044156607    2.45164536160165   -0.10754206603259
O          -1.22802397002895    1.44428620457250    0.73856945139746
H          -1.52245718578201    1.10335401541023   -0.18020749456323
H          -1.97816269313378    1.30570131051000    1.32060984701806
H          -0.17433134655197    0.51122322009833    1.10214891046336
