    19
        -40.91306187
S          -0.29452282242783    0.86759212154931   -1.11829711669256
O          -0.97522823132312    1.69266501327749   -2.05554072518874
O           0.91045195254838    0.22505284028164   -1.56922897197291
O          -0.03857473378573    1.59040151338700    0.20086846539996
O          -1.29014813965469   -0.27255254712136   -0.63355926885030
H          -1.47680851227365   -0.77087291271878   -1.45849903318107
O          -1.10346046610044   -0.85697362085167   -3.17530592810055
H          -0.14116468947881   -0.85035542389932   -3.11056351627333
H          -1.35468273751164    0.03956760250181   -3.42691631395812
O           1.09414040444499   -1.34198144326188    2.36738030111838
H           0.17072031875597   -1.00435539021081    2.36878199230833
H           1.35742310861801   -1.42452772897180    3.28550002192202
O          -1.29139238036090   -0.11947594980539    2.16087076430339
H          -1.11239320452660    0.82553527376428    2.14395809125341
H          -1.52393646574790   -0.34757348869188    1.25087579508692
O           2.11787908798654    0.54219552763095    0.83786748326024
H           2.20366124685668    0.18707281855086   -0.05945387041160
H           0.89370687265178    1.23518535553922    0.56889562113590
H           1.85432939130922   -0.21659956095264    1.42236618889642
