    19
        -40.92145176
S           0.20466855170282   -0.71541412267930    0.83208113445868
O          -1.19241912340658   -0.37454013052929    0.84601603186768
O           0.96644307076440    0.50361635060406    1.45714343097071
O           0.59549315695866   -1.91582259937350    1.49582294410990
O           0.72139466578662   -0.76118461477788   -0.60026701658008
H           0.26783573029220   -0.00158619368796   -1.24039426372149
O          -2.58510401376066   -0.53849642471352   -1.50033590159247
H          -2.73653514344085   -1.45750842482675   -1.72610070090220
H          -2.29203999627824   -0.52175677944427   -0.57312098453327
O          -0.92685517569215    2.27583105873256    0.29985856601793
H          -0.17461147351980    2.53023830130135    0.83945549728073
H          -1.23425718932939    1.42799815160019    0.66143586022064
O          -0.42571175349695    0.96148848040428   -1.94905340985070
H          -1.28822918090467    0.50675256525022   -2.07034640893532
H          -0.60082447134027    1.65389140890155   -1.26668021438214
O           3.08495016780114   -0.98646897235887    1.23214679058842
H           2.42785697443560   -1.66630602866824    1.45976164802231
H           3.28705689193666   -1.10792463299355    0.30045059323546
H           1.90088832150310    0.18719260724313    1.50212640373369
