    19
        -40.92079115
S          -0.25258334057981    0.56986157714437    1.34865077680431
O          -1.43514280632199   -0.01597381374853    0.71428459219212
O           0.32884733308296   -0.29713942067171    2.34073967370410
O           0.69102784510925    1.05456123957167    0.35100220232288
O          -0.76019214203278    1.86736727641838    2.09934257052419
H          -1.26966428123312    1.51702749315812    2.82330163988622
O          -1.15464952860276   -0.35053234392930   -1.72202700494743
H          -1.41284153169105   -0.27610473320561   -0.70260341402789
H          -0.98674163928896    0.62006835021803   -1.96657316342446
O           0.81051414681845   -2.49540445001446    0.95490983498567
H           0.57741587045473   -1.73962636399177    1.53665051163164
H           1.47305735730456   -3.00211030925964    1.42835938428904
O          -0.38189037146911    2.08823854356261   -1.80808368411127
H           0.32706491036221    2.38751113808377   -2.38090022988378
H           0.02723376205272    1.89707011049945   -0.93123251404643
O           1.18426429956909   -1.04615591524349   -1.21450798757204
H           1.30156831042358   -0.23865148167322   -0.67418232819786
H           1.11029750715351   -1.76766834518504   -0.54633681130493
H          -0.17758570113704   -0.77233855171965   -1.65079405883752
