    19
        -40.92079119
S          -0.36324983535554   -1.26620228275824   -0.68791399522398
O           0.13685059202889   -1.11467818038086    0.67149674184814
O          -1.17732716197045   -0.11441392696303   -1.08092045463674
O           0.65133224811075   -1.58318541652812   -1.65968029091277
O          -1.35481963769153   -2.49830355123960   -0.62594972966079
H          -1.56615141226811   -2.65655126510495   -1.54072357598607
O           1.98584545712768    0.69142621987377   -1.83362666232129
H           1.47818792623668   -0.14800618120048   -1.87288539485791
H           2.85044140084248    0.49763980515870   -2.20079758195960
O          -1.49810277447596    0.06492837013398    2.34939930653350
H          -0.96594607894360   -0.55314038476775    1.79468088327691
H          -1.07463035445731    0.09357781351012    3.20971344376614
O          -1.00664567787326    1.77492259078773    0.50923956312928
H          -1.34499190878791    1.28333846427675    1.33016640909207
H          -1.17029672492917    1.06495807746706   -0.25228073076432
O           1.41737801996798    1.22319043745769    0.68435165273786
H           1.18695008292679    0.28581383172249    0.84589533180340
H           1.75993754288459    1.22503300353173   -0.24029889791937
H           0.05523830715503    1.72965257345945    0.60013398405566
