    19
        -40.92003347
S          -0.18214602237433   -0.67065160070169    0.53636931178744
O           0.78369118889377   -0.60452721391142   -0.53471161095544
O           0.52906830017320   -1.01094932041873    1.84807676005903
O          -0.95351652750556    0.53861210587544    0.67512023025381
O          -1.10423926084741   -1.87858835455715    0.35623440033574
H          -1.63813542939064   -1.80261692766596   -0.51134810398720
O           0.95518755660798    2.28565207172304    1.37342962656412
H           0.17861609050911    1.76229720693877    1.09620374626808
H           0.70549734877875    2.73241877780975    2.18490705438799
O          -2.23962914715321   -1.55832889547186   -1.89750587190758
H          -1.86710284638224   -0.66767320980185   -2.13020619938245
H          -1.88462986479847   -2.18041717171612   -2.53721949304584
O          -0.92498764952316    0.70542178437177   -2.15176353164834
H          -0.11373360348604    0.32551385574657   -1.77150707991028
H          -1.28116697103011    1.27064650789832   -1.45876890901746
O           2.66588953280468    0.23479117087130    1.34065811034502
H           1.46782756353925   -0.59969703219938    1.78700200308390
H           2.65297020621836   -0.00694963961745    0.40659303909440
H           2.25053951494945    1.12504586481408    1.38843650767600
