    19
        -40.92246915
S          -0.97991991090425   -0.01850879374147    0.42726178564631
O          -0.42533420771184   -0.31804402413068    1.72695429695932
O          -0.82272337459505    1.33766514622003   -0.00375097246986
O          -0.38946483356173   -0.98194735178456   -0.59907753937383
O          -2.47967967894129   -0.38635085897276    0.41153662562973
H          -2.50381746263834   -1.30541749652145    0.77871923319073
O           1.91322084645780    0.91358489605090    1.17474397203907
H           1.16142862422733    0.45027045663406    1.58205694200059
H           1.64375499368907    1.83182776730847    1.09269285955131
O          -1.73104246396118   -2.65253409704473    1.44384563029473
H          -1.11811001118317   -2.05519985116070    1.90279522237517
H          -1.22122823941311   -3.09276548591322    0.75800857967360
O           0.65851868745858    2.07935593033734   -2.12198454538866
H           0.06325392618052    1.98095943654024   -1.35474403344867
H           0.09663011079316    2.15764747680380   -2.89464584597467
O           1.82985674989821   -0.13566236978640   -1.25568495518963
H           2.11782942610774    0.19741787267313   -0.37126110308273
H           0.61043148922948   -0.67585446580399   -0.93769177515882
H           1.57639530997229    0.67355582828187   -1.75977436613132
