    19
        -40.91346204
S           0.69431431540759    1.87701304613346    0.43462515191140
O           0.39435770241391    2.46530842554737   -0.83338835713864
O          -0.53793790055418    1.83136421726896    1.32288527654368
O           1.33329414789496    0.59088472056464    0.38542796654563
O           1.64006747741977    2.84816159225297    1.22641395196778
H           1.31334031017471    3.73482279900612    1.08701369725784
O           0.03800919353698   -2.87249999608877   -1.19194953555126
H          -0.03608958579201   -2.00486731544920   -1.61415170060153
H          -0.75459293487068   -3.36207715833146   -1.41795294007191
O          -0.24622069657199   -0.11919116289855   -1.68055818446039
H          -0.32007403112018    0.71058385541707   -2.16158587483080
H           0.49516356426058    0.02371867393729   -1.06504827186653
O           0.22744982798227   -1.80821500082086    1.33167786057530
H           0.28600382956784   -2.37247972081187    0.53736603048656
H           0.89364820694996   -1.11757410896294    1.21101181868498
O          -1.70836368519877   -0.22767601912562    0.62741393812560
H          -1.10380868814813   -0.91585414806163    1.04014293621958
H          -1.13044727168379    0.95794548760393    1.08215196224369
H          -1.47811379168155   -0.23936819699449   -0.32149571631596
