    19
        -40.92343664
S           1.50297909699010    0.34455807463550    0.68441383687169
O           1.89597155641111    0.28433144725328   -0.70729505711056
O           0.30678178529906    1.14526055105524    0.89239207037395
O           1.37051772189343   -0.98912656982661    1.27257501253801
O           2.65897470768400    1.06412978665224    1.47679444358518
H           3.40586427559556    0.49476451145636    1.32041785985872
O          -0.67400867176340   -1.99847473348655    0.28752971907892
H          -0.49686156087218   -1.66182159174262   -0.71166367756477
H           0.20895620786760   -1.71827606696829    0.77248529558839
O          -1.25446784684297    1.44404447105388   -1.23385838818567
H          -0.62843246239086    1.47084061431878   -0.47680467045246
H          -1.05682902527266    2.21147198056743   -1.77242478736842
O          -0.11825818924096   -0.90289476949891   -1.88051869390288
H          -0.69870811086268   -0.11319433936879   -1.88490461521467
H           0.76279040899369   -0.54450910769713   -1.61724592489809
O          -2.06440333735546   -0.05071377830309    1.15393154519751
H          -1.25212975462480    0.46913882638927    1.32756965016629
H          -2.49804977743909    0.40038752155910    0.42111694796714
H          -1.37068703407129   -1.34991684803476    0.67548943345303
