    19
        -40.92136244
S          -0.79590929192967    0.54744328609687   -0.99548682226621
O           0.49088701645749   -0.08223972039803   -1.19045823779930
O          -1.90395811960539   -0.17895735708242   -1.56453413397930
O          -1.00949080232816    0.87231617018194    0.42559810392312
O          -0.73266969843941    1.95172370931667   -1.73412709779481
H          -1.63065771650954    2.10912284082252   -2.01173408642984
O           1.33486456505337    2.04271575110468    1.00802505307620
H           0.41082157062641    1.76617911100834    0.85965621147491
H           1.57983820296359    2.57065834706348    0.24632729309354
O           2.00529560800992   -0.53385940183120    0.89896889632304
H           1.68007292252264   -0.46388627703852   -0.02783512137328
H           2.04604070393075    0.40646821242619    1.18147410306183
O          -1.00853804254381   -2.40520077747607   -0.47413861335760
H          -1.49862563232425   -1.67837963924843   -0.92125156335308
H          -0.24856701446460   -2.58012422481294   -1.03628489168509
O          -0.26430018881910   -1.19112486419642    1.64354474875731
H          -0.56987764467342   -1.84369716515453    0.91601127354272
H           0.79689091193497   -0.99988388219271    1.45190474547254
H          -0.68211728531968   -0.30927406127586    1.32434015336417
