    19
        -40.92139830
S          -0.67036109461049    0.36119925954950   -0.94264466093867
O           0.44329635912170   -0.50160447412544   -1.33335011306638
O          -1.74846767953576   -0.40792084112489   -0.32619667724558
O          -0.19941699947088    1.43031607060659   -0.06737788582989
O          -1.26380382666322    1.00145186253105   -2.23005873207772
H          -0.50359322814470    1.50066088765949   -2.59286654913962
O           1.05023935517879   -2.16992979881988    0.54253398707578
H           1.05821572835668   -3.04500650430196    0.14885543189802
H           0.90924720638777   -1.53254835022433   -0.21217199303672
O           1.19951118142046    1.92660858005469   -2.35755899036538
H           1.45906267028675    0.99959512436958   -2.27529387014507
H           1.01854007265526    2.21481022135556   -1.45255966425882
O          -0.10151051562656    0.86735275526397    2.46613609674604
H          -0.18573162347785    1.21458150983033    1.53902789630841
H           0.82944243527601    0.92609629040612    2.69222911095488
O          -1.00014665297200   -1.39739223049698    1.80599776058925
H          -1.46803606671154   -1.02600538882255    0.92563673415849
H          -0.15269190375933   -1.83932600149776    1.41645250475572
H          -0.67379540779559   -0.52293897170944    2.25320960352504
