    19
        -40.91893422
S           0.66826442392678   -0.65025671430898    1.46436932780040
O          -0.47666142925898   -1.31840616809108    0.82719555670719
O           1.92339389734016   -1.25309529654256    1.09357117269055
O           0.59853906611166    0.78664268880247    1.28466306461826
O           0.49164988548924   -0.90214560022838    3.02168913420108
H           0.91777839043589   -1.74380943970925    3.15259813959335
O           1.88617830464182    0.20539551498153   -1.10591128230491
H           1.74767687481028    1.03555512388694   -0.64014922915944
H           2.04058081312731   -0.44623951931415   -0.39212970068253
O          -0.16221081756218   -0.35257365348700   -2.64579574122471
H          -0.03084463747809   -1.25643824985511   -2.93879711223910
H           0.65874149469438   -0.10342084121924   -2.14198120904558
O          -1.40055188177905    2.09854959912041    0.28887721974399
H          -1.95522012123490    2.39994896669529    1.01073276987155
H          -0.58771801707367    1.71062969108883    0.70526938470694
O          -1.88575961209470   -0.13819994407118   -0.80793117488131
H          -1.27178327726878   -0.20054387382375   -1.64016274186489
H          -1.34354152417940   -0.69652627497358   -0.07304363254857
H          -1.81851182264938    0.82493397104903   -0.46306393598465
