    19
        -40.92267743
S           0.43232219871150   -0.75607874292546    0.61293315009256
O          -0.48366717261562   -0.04471899311228    1.47517638386506
O          -0.22394329937422   -1.76537051862252   -0.20479596185494
O           1.17135345401918    0.19168470039818   -0.25800563286008
O           1.50089750403520   -1.44600337260126    1.50594972947883
H           2.05585079443019   -1.92836677697826    0.85349319532457
O           2.33860718385063   -2.33291979166623   -0.81599203176091
H           1.38197857318331   -2.46321414318237   -0.91478450452608
H           2.51688228983517   -1.45656082517314   -1.17243159671379
O          -0.96778625930154    2.50756159896464    1.23467528650685
H          -0.85281910689476    1.56016429378746    1.49453766438241
H          -0.29722069028182    3.00132919716483    1.71058657060616
O          -2.16093817722067   -0.19258120285700   -1.00648069844396
H          -1.51565765904291   -0.91109305864374   -0.80258825378376
H          -2.69031830895992   -0.09278515756136   -0.21044395938380
O          -0.51656225365158    1.73859522308795   -1.14373131983422
H          -0.73451771061659    2.23915163684409   -0.27584339135234
H           0.31615537710033    1.10903715065554   -0.84217968216065
H          -1.27061672399323    1.04216875998232   -1.24007494955372
