    19
        -40.90446726
S          -0.49986019917099   -1.59800245849063   -1.77297038812556
O          -0.91127177309330   -2.43826067472704   -2.83570212602315
O           0.90316122193862   -1.04596782470835   -2.03235403484142
O          -1.36644331466941   -0.54497730532501   -1.33064292097516
O          -0.28168622482930   -2.52147662388054   -0.49000419611704
H           0.12257730928653   -3.32778097225933   -0.80229296830034
O          -1.62244714984509   -0.72375529347513    1.37777045741840
H          -1.68700336741452   -0.60607693300370    0.41445205597369
H          -1.54261338764442   -1.66969117059201    1.51611730432011
O           0.79808836999087    3.19402106892650    1.33435724681195
H           1.50764509665381    3.82106203897995    1.48099056935718
H           0.87625319517445    2.88963161302600    0.42178064768694
O           0.78498587984057    0.42314056961684    1.75988669403005
H          -0.10842874872996    0.01972874813589    1.80201793281108
H           0.69454962345713    1.32927623596175    2.08782161861560
O           0.72582691682988    1.08894370805554   -0.73931071059062
H          -0.23159924582922    1.06635777408482   -0.87467884222340
H           0.86518594920295    0.78544551775027    0.21447754740811
H           0.97307983883707   -0.14161802807941   -1.53171590724223
