    19
        -40.90743826
S           0.70173058824327   -1.72707052308182    0.99203287975684
O           1.14438772259488   -2.21001403370553   -0.40439879246420
O           1.08127548526886   -0.34777066821315    1.14007622720514
O          -0.65122787861651   -2.05894505802363    1.26112712805456
O           1.61557116214737   -2.59318615346316    1.92240157743086
H           2.50998581940844   -2.26185340738879    1.85961582456735
O          -0.17495268418895    2.75845230227110   -1.41522606441503
H          -0.97728711382731    3.16348416553418   -1.74992913390456
H          -0.02616604931536    1.95935547189634   -1.93575210588887
O          -0.81130796798039    1.74348685746968    1.11299250953079
H          -0.48818175561978    2.29242080125156    0.37882416853521
H          -0.07945120987431    1.16639690407403    1.36952856140800
O          -1.89375648795172   -0.20519748352822   -0.35160367840988
H          -1.75274719052130    0.56672718941082    0.24468777604153
H          -1.79235599498304   -0.98106242810162    0.21690580723753
O           0.40154068096722   -0.08239420767607   -1.53260754030700
H          -0.55708440021165   -0.13101319188811   -1.22397538177164
H           0.86443768669632    0.40562503367775   -0.83919036438211
H           0.88558958692528   -1.45744158101988   -1.04550939807949
