    19
        -40.92139814
S          -0.32551515878557   -1.16710601735879    0.01199307369875
O          -0.08937534891497   -0.57671954034029    1.32618411770741
O          -1.23486669644762   -0.32641796112095   -0.76477655130778
O           0.92340280615159   -1.40565830277596   -0.70700707857991
O          -0.99629879830444   -2.55682523923408    0.20760307976366
H          -1.81668217267199   -2.33381091288764    0.69341109378750
O          -2.77831925465489   -1.02196815698036    1.39476319817642
H          -2.00444352037512   -0.69582667854508    1.87440255629986
H          -2.78299413072695   -0.52616561201917    0.56563835010019
O          -0.00817999633642    1.69702358273433   -1.79927388520955
H          -0.20810938310787    1.69689629838976   -2.73782217783376
H          -0.56420833243581    0.96982957222202   -1.40187518167259
O           1.82777784235141    1.16985705310959    1.45660632229311
H           1.14087536705537    0.45631756826466    1.53721040927331
H           1.39147677230286    1.99141258531572    1.69307930420439
O           2.17434384906172    0.70090106143862   -0.99917122998625
H           1.76516033492706   -0.27847669670716   -0.93520519759136
H           1.38690348912480    1.22492206658033   -1.41265607594347
H           2.19905233203372    0.98181534997416   -0.00310411706789
