    19
        -40.90906094
S           1.21160883177676   -0.62281586974433   -0.98248064699475
O           2.33601317001530    0.40445652886845   -0.86451194885528
O           0.94274078252088   -1.20540116474412    0.30909642716774
O           0.10219943089508   -0.09465527527133   -1.68969010115901
O           1.88429477749268   -1.74447938844822   -1.85563922495935
H           2.58652522549156   -2.13778107704212   -1.34008462896241
O          -1.60499211089538   -2.00337614574723    0.83104860251522
H          -1.52433890092789   -2.46192432113486    1.67014235153098
H          -0.69901251192116   -1.77424517805119    0.56025161812143
O          -0.00935238565674    1.25598035106823    1.26049415898417
H           0.38032584229899    0.37818296083073    1.16474987965999
H          -0.97435714416005    1.13137355088245    1.13339060021914
O          -2.57561455438976    0.54765666289636    0.84507944432143
H          -3.28586924460687    0.57206735277390    1.48834403526623
H          -2.36003712907718   -0.39398136128797    0.69851368330636
O           0.91961767807222    2.44107654973459   -0.86218261712525
H           1.87153025309404    1.35362945887603   -0.89234557816329
H           0.26482118635303    2.13977281814996   -1.50397113194970
H           0.53389680442741    2.21446352799650    0.02979508591515
