    19
        -40.92174075
S           0.29117219185236   -0.40343601970130    0.74559997063768
O           1.32887876664936   -0.95095800641132   -0.10233891265321
O           0.30797817567522    1.11269083436496    0.67932837981002
O          -1.02456263428939   -0.90559181239896    0.47790124383148
O           0.64883393503491   -0.70229412150250    2.21775422694766
H           1.63240844253010   -0.59176993344673    2.28423863330824
O          -0.16462698469175   -0.57822129323610   -2.32885786572771
H           0.52214852911438   -0.80774650189582   -1.68130666102332
H          -0.91478720068434   -1.14354860320789   -2.12680597916671
O           3.19824383463935   -0.59413982954517    1.73829183993155
H           3.71539159721008   -1.38413269766433    1.91498954099475
H           2.82426170561783   -0.69422913931065    0.84330472157782
O          -3.03565569731257    0.67981537682660   -0.35112518094981
H          -2.43192269157465   -0.01235357203133   -0.02091320858204
H          -3.50629899263020    1.01695188592449    0.41293124784929
O          -0.85931210320180    1.80526116699621   -1.38525442857465
H          -1.78648380760086    1.59129716947897   -1.13041552323348
H          -0.16748852597543    1.50080141353754   -0.21833292120575
H          -0.57817853032387    1.06160368325524   -1.96898913378177
