    19
        -40.91923787
S          -0.14644016811219    0.47843458653418   -0.83584803084498
O           1.04005980091795    0.19419313125482    0.14465904627352
O          -1.32037107451224   -0.17543748024594   -0.30994674281419
O          -0.24341096406362    1.88496753613361   -1.03427567154962
O           0.30237096474942   -0.23976362285956   -2.10684874112524
H           0.00778090242352   -1.22177219263515   -2.00239308371728
O          -0.53642835280690   -2.52951157320458   -1.47207753703168
H          -1.24983418176120   -2.12459530189146   -0.95982595206162
H           0.14891316880532   -2.78397983977670   -0.81639421664251
O          -1.76226654621227    1.71274151963024    1.55969889459961
H          -1.74551732855418    0.93024692507123    0.98005027398139
H          -2.24900951790042    2.38370028935034    1.07552255126840
O           1.42928966006964   -2.54068866811158    0.34868723693731
H           2.34273217754301   -2.74176632381380    0.13621598199601
H           1.36859312207669   -1.57724261529726    0.44350244830061
O           0.83180417148858    2.29289351176931    1.52161389712772
H          -0.11469153745712    2.14825019358487    1.76404029721579
H           1.08483196827753    1.00032414185933    0.78272987019339
H           0.81159375420502    2.90900578395647    0.78088948780964
