    19
        -40.90789721
S           1.70424613142783    0.32554835475264    0.82504554581466
O           0.85772191778256    0.36496161484473    1.98183382869631
O           1.85914482860140   -1.12491624987490    0.34602224931760
O           1.36138045835567    1.20289312998529   -0.24260400247259
O           3.16701059384653    0.64793637456886    1.27805519532179
H           3.30396295299324    0.19838343623395    2.10940552497756
O          -1.42148424462245   -0.36013730728972   -2.65131511784934
H          -1.47216252830915    0.43018851457672   -2.09834496621611
H          -1.01259858096961   -1.03464810152906   -2.10137193942304
O          -1.66522909986495   -0.13434901434992    1.11350816333777
H          -1.81199642118902    0.60709010285394    0.50389044022238
H          -0.89656469802753    0.11758730447201    1.65257036124033
O          -1.21014623551669    1.80512620192747   -0.77349427356748
H          -0.25202081000951    1.66480199848302   -0.65491381520570
H          -1.31756023518257    2.68268867875796   -1.14407267025598
O          -0.44912720911008   -1.88522980915227   -0.32650591132230
H           0.95425132823249   -1.47591483155887    0.01407969168097
H          -0.66801660197649   -2.77585758923233   -0.04304861229758
H          -1.03081153654501   -1.25615279772022    0.21126029004791
