    19
        -40.92071446
S          -1.16850693214359   -0.62643670126745   -0.66143110249859
O          -0.97588911680448   -0.51663042922569    0.79820220678229
O          -2.20940911541546    0.25944775494120   -1.12964176755360
O           0.09117134560525   -0.47271965199905   -1.35185539434479
O          -1.67523625757152   -2.10138907211501   -0.91532832141534
H          -2.62235037471289   -2.03464408917100   -0.83333134523008
O           2.23255163059610    0.08910186805625    0.06324176888885
H           2.19864588439224   -0.64781728268403    0.70916752576770
H           1.63323015568821   -0.20935026096917   -0.65934382063654
O          -0.57624702917981    2.30134629344324   -1.25709304402337
H           0.00733324536288    2.00883645625669   -1.96335972039055
H          -1.32990520236890    1.66499127061578   -1.26830261612593
O           1.22557711734037   -1.75428601000065    1.70204204632417
H           1.14720784197763   -1.89414549163054    2.64682056250703
H           0.34981724959619   -1.45091553503418    1.39017249095856
O           0.44521007801981    1.55565029903975    0.94629387238412
H           0.08273850749311    2.03190102891116    0.10792241189669
H          -0.20646201073557    0.77087574701716    1.05838928340140
H           1.35052297147292    1.02618380036273    0.61743494483596
