    19
        -40.91814141
S          -0.00196788961604    0.82063539476388   -1.56101214861422
O          -0.70388230840324    1.50179551232061   -0.46509487485707
O           1.05494355949511   -0.03527287575198   -1.03248310036495
O          -0.89154636995005    0.18669130452098   -2.49110383763189
O           0.75320131129593    1.96920063625619   -2.35990418626211
H           0.13604467115298    2.19086198894614   -3.05047405332929
O           2.06355764785894    0.24491744704365    1.33828532136078
H           2.71097139992047    0.95204666460388    1.31709348003699
H           1.80234347797867    0.07882153887000    0.39524117707112
O          -1.42950368388103   -1.50529558178366    1.70643837345263
H          -1.31642782390611   -1.70573273999407    0.73816016341558
H          -0.98749815271174   -2.21290333544522    2.17992040236202
O          -0.82011246036983   -1.92103372784304   -0.80652474899520
H           0.06859886762371   -1.53310680369892   -0.86214385637528
H          -1.29888454850623   -1.44942708847152   -1.50297532489353
O          -0.36334362347709    0.78937650701528    1.86387100179854
H          -0.56676340874093    1.16426692374870    0.87914809191952
H          -0.84879900176295   -0.12303104846993    1.89051041716738
H           0.63906833580988    0.58718928385916    1.82304770255302
