    19
        -40.92246917
S          -0.60133937855633   -0.81699934392720   -0.34053622494492
O           0.14286099267760   -0.43400605348699   -1.50200741920859
O           0.08263697450843   -1.71763549120222    0.55793670759023
O          -1.05370156469043    0.41473245810269    0.43994287963837
O          -1.94048324653626   -1.44836851825455   -0.77946886593137
H          -2.35826542362357   -1.73637753844821    0.07058592337295
O           0.96409446746108    2.07679979535410   -2.00471678629630
H           0.32881033919502    2.51427202535901   -2.57403161936366
H           0.71939233378324    1.13206427257849   -1.99060382337039
O           2.35036299243871   -0.25161562019031    0.53375886162825
H           2.64178672612089   -0.34634765798358   -0.37655446310480
H           1.66112535893402   -0.92510449457773    0.66456055102372
O          -2.32123849538720   -1.91292565534627    1.75053128460367
H          -2.41878796429276   -1.04733340557329    2.15721648817570
H          -1.36725549424690   -2.08629212273450    1.69648591700725
O           0.86985524569607    1.94217424807819    0.64183874834419
H           1.57401919947503    1.26112603241907    0.76960434787095
H           0.97100142711370    2.23690976047542   -0.29407445662297
H          -0.24487449961043    1.14492730677005    0.57953194600670
