    19
        -40.91898910
S          -1.06181229028588   -0.28600427986250   -0.00285781864327
O          -0.27373529601637   -0.56092127432352    1.20692054305743
O          -0.90110245926320    1.08983054371512   -0.42491367383489
O          -0.71300958710790   -1.22477965914288   -1.07195281910017
O          -2.55389388850572   -0.55520050448820    0.33887359043268
H          -2.68588198561827   -0.10354519419118    1.19912339822540
O           0.89750843879274    1.75786905503440   -2.15061398319663
H           0.10965650665461    1.61027715612690   -1.56035966777480
H           1.45477805207590    2.39120606252157   -1.69261394350464
O          -2.16565431355369    0.42608565805642    2.75292010052616
H          -1.28746061654431    0.17096167091614    2.40826788693334
H          -2.35763002174396   -0.16540886967151    3.48439909652750
O           2.22524835177914   -0.60467288940363    0.51259537531755
H           1.29481948061978   -0.53915598581433    0.85928450038344
H           2.60226316062272   -1.38954293653366    0.91586231837257
O           1.52675070807955   -0.67201951803864   -1.92918646463728
H           1.37458228900638    0.32942342193859   -2.16119111149978
H           1.97710628843879   -0.67377959831198   -1.00821999530553
H           0.53746718256892   -1.00062283852793   -1.67633733227724
