    19
        -40.91346206
S           0.21753832966215    2.00154500742889    0.37435491362367
O           1.49059491643600    1.46821911252643    1.01065689604988
O           0.44590883124513    2.39983670393693   -0.97958564417436
O          -0.87290975792812    1.08780046026248    0.57613813323408
O          -0.07145491049023    3.28404250824969    1.23221905530829
H           0.54635836833437    3.95592135397582    0.95071029517062
O          -0.19135532891494   -0.22894959995810   -1.67548945024106
H          -0.66324298244774    0.21037356383607   -0.94522308647868
H           0.09924503236686    0.49378452257948   -2.23999570546725
O          -1.43379598005022   -2.61928977148112   -0.87452205386694
H          -1.11334517519935   -1.86283623993328   -1.38601598540820
H          -0.97455379176252   -3.39393598392890   -1.20324538158732
O          -0.62869625601735   -1.54380305501040    1.51990742683125
H          -0.97623403455244   -0.64299832380468    1.46397784621476
H          -1.07707599805150   -2.04365415159219    0.81150146075962
O           1.57250775202833   -0.89573958478334    0.30439541356531
H           0.85044706128698   -1.27423765645766    0.89131270423345
H           1.15687291047855   -0.82328235617366   -0.57628247256388
H           1.62319101368100    0.42720349026668    0.74518563487193
