    19
        -40.92078069
S          -0.53254911210774    0.77129472484380   -0.45831570389941
O           0.03941656593603    1.76003822030362   -1.30759167314230
O          -0.53742336481730   -0.56967571317069   -1.00572786942765
O           0.24256218509294    0.72273953001232    0.89305516347804
O          -1.93696689517433    1.16249151179162   -0.01794829339055
H          -2.16356958574039    0.62836780832993    0.82903888312117
O          -2.17513023903280   -0.22356496573049    2.08772151059863
H          -1.36743732065803    0.05049838919115    2.53299488213355
H          -2.00241402604686   -1.12602361821868    1.73126050727505
O          -1.33093836692755   -2.37737841699212    0.78812841639133
H          -0.57652272416410   -2.93897624440278    0.97520016850000
H          -1.08420305334919   -1.82860270486114    0.01762836810236
O           1.97932803644878   -0.44496287712289   -1.95720006207142
H           1.06662718124515   -0.65132466597805   -1.68785707538218
H           1.90312301382065    0.01461907942310   -2.79666855762175
O           2.50955304027214    1.33898577242629   -0.04756480865899
H           2.21863049677763    2.12442546188305   -0.52345048561137
H           1.20962934524462    0.96441741183292    0.67243006505871
H           2.53828483080593    0.62263129100077   -0.72513342751170
