    19
        -40.91617677
S           1.46414428002076   -1.29583087299716   -0.27924739171480
O           1.73375805363681   -0.97455159791327    1.10169656875403
O           0.18348414240431   -1.85990532627381   -0.53955112017675
O           1.75703769737709   -0.08843273676468   -1.15280667729998
O           2.56090197043642   -2.30972220226851   -0.75601310125450
H           3.39607534521608   -1.93911684908695   -0.48005392030042
O          -0.22096394083577    0.55856077034016    1.94994875330211
H          -0.06555810337046    0.87806897703971    2.84089365513058
H           0.50431441254158   -0.07529840113919    1.74927374119527
O          -2.01527531480301    1.27350304933483   -1.52575326458527
H          -2.77247156261901    1.85283031811370   -1.42884171355132
H          -2.18356971274322    0.48986918589265   -0.94609789308339
O          -2.14302496360408   -0.67322202133725    0.27128549488678
H          -1.71344857287058   -0.26653206859619    1.03620431752439
H          -1.48526617778522   -1.29172136818685   -0.08491751075703
O           0.30842632394269    1.77232528057885   -0.42019912966390
H           1.14784417986806    0.76364610766302   -0.87701082375677
H          -0.52887957062071    1.67948238496563   -0.95045617673752
H           0.07247154370257    1.50604739071649    0.49164619202253
