    19
        -40.92079119
S           0.83356458841642   -0.37806130841580   -1.17062265164680
O           0.22906145151001    0.14298443657692   -2.36943374105583
O           1.41615216612758    0.67198362172442   -0.33274825634255
O          -0.03629786607948   -1.24771760039288   -0.39088673033033
O           2.04143363392506   -1.29855454534559   -1.61635841322258
H           2.52416790250208   -0.74917435740870   -2.22599536607084
O          -1.80582443546530    0.38287839802904    0.75644941043761
H          -1.40529500722809   -0.38371966606461    0.29850669463815
H          -1.87567007153738    1.06790835471425    0.05081161804426
O           0.74560805702438   -1.71200659470051    2.06955044824708
H           0.55075604946227   -1.71544150343742    1.10267926156951
H           0.11207663180624   -2.30521332519528    2.47825693835333
O          -1.52167069629261    1.87002206887127   -1.40131184570166
H          -0.83404843022835    1.30694227658494   -1.81835583498104
H          -2.17707576607924    2.03858831446085   -2.08087905297704
O           0.36484056191922    0.81371621412817    1.90348702801257
H           0.89644064801122    0.87650486804210    0.99527888182972
H          -0.63742722719354    0.74927837354838    1.54505398824081
H           0.57920782787776   -0.13091802560253    2.20651762428681
