    19
        -40.90831912
S           1.38633150598223    0.92477138716194   -1.24042298083741
O           0.33873997099445    0.68349632674462   -2.34545155553836
O           1.14960508759039    2.17628162648175   -0.59422659989575
O           1.49815756738108   -0.23396628507101   -0.41376209164257
O           2.70290891932674    1.05593318642140   -2.08297130448309
H           2.73277180186740    1.94244478586169   -2.43891514397075
O           0.43554656825834   -0.49841512150912    2.19325645344764
H          -0.14806852916544   -1.26988771523732    2.09485931008769
H           1.07198291342662   -0.54064552076695    1.46796212209183
O          -1.03369518170111    1.22549459867578    0.79147321658315
H          -0.55711253819900    0.74222790940603    1.50706525858808
H          -0.38079263234319    1.83260837045057    0.41713223533520
O          -1.64935464591896   -2.23809765079792    1.52733146085533
H          -1.92994748754663   -1.92751114182132    0.65732926725300
H          -2.36745410921378   -2.05172114170754    2.13508228236477
O          -1.17373368857696   -0.72914742934655   -0.90030156206831
H          -0.39784239500441   -1.21672785752356   -0.59501460258772
H          -1.28687784190408    0.02497245673978   -0.24411995046543
H          -0.39116528565279    0.09788921554161   -1.93630578498995
