    19
        -40.91907714
S           0.19616140825236   -0.11406190385109   -1.65234123713713
O           0.08710139182937    1.17940936891194   -2.28525689873064
O           1.29748305128888   -0.14705780408623   -0.66649373819213
O          -1.03264118371489   -0.59598891409793   -1.06487010081984
O           0.61202451885028   -1.15082017999645   -2.77395253048955
H           1.18522686974954   -0.66588723956270   -3.36201622063116
O          -0.26791853611607   -0.47917014897384    2.68773180018485
H           0.27149278997265   -0.74398849107259    3.43500139507648
H          -0.21615248850066   -1.21991399589571    2.01601187888858
O          -1.37313517064387    2.02331518707038   -0.27731274037742
H          -0.89286670037969    1.98153733938507   -1.13451274902014
H          -1.91546933711483    1.22392897889220   -0.28301581237965
O           0.09010153222750   -2.16710290896252    0.73353704627228
H           0.93719412191654   -1.86558163019596    0.38048141069445
H          -0.55207429239967   -1.81385754905878    0.08647846223074
O           0.58375965942107    1.35624121619459    1.17363967206889
H           0.22668655133194    0.67820080023660    1.87655986014544
H           1.00881767742202    0.75790770432959    0.41498916527929
H          -0.24579186341035    1.76289018014081    0.69534131728962
