    19
        -40.91721620
S          -0.98909719412977    1.17201086918861    1.01735378775407
O          -1.22842807931902   -0.19387086137943    1.45741611362902
O          -1.57296651556120    2.21525880055537    1.78929174878398
O           0.44168118504755    1.35023731048213    0.71956590265085
O          -1.69479111394795    1.25841863399810   -0.43811163472345
H          -2.10445978439816    2.11414780587723   -0.37299652610296
O           1.37478242068729    0.79776455766196   -1.61829193637453
H           0.96404082047363    1.12712234508678   -0.77282884229654
H           2.23844335565828    1.21109875863521   -1.67429180665529
O          -1.36365822526155   -1.49390933862530   -0.75057775945289
H          -1.41457032423232   -1.07849245195879    0.15510167411095
H          -1.69838731283011   -0.81451266271575   -1.34394678281891
O           1.13314057856397   -1.61897544672442   -0.89099028178482
H           1.32594982437173   -0.70320158512685   -1.31782986373846
H           0.08129406843082   -1.68950501587121   -0.91596570745458
O           1.38927118497096   -0.93843918277933    1.51228595682428
H           1.33924595747846   -1.46391970626116    0.13088276099937
H           1.16643874089772    0.00920586446665    1.32861516503807
H           0.61207041244681   -1.26043868502046    1.98531802170528
