    19
        -40.92071446
S          -1.20591461116911   -0.84328311962495   -0.17381630524842
O           0.12183053608901   -1.40695253361186   -0.25444750819345
O          -1.92938413645696   -1.20720750013173    1.02271970829989
O          -1.15901070106462    0.62089198440249   -0.35766047716558
O          -2.03589145502804   -1.40084641526859   -1.39719537861407
H          -2.93892891758791   -1.37004072988291   -1.09425905710468
O           0.54111694638059    1.42437974946860   -2.27039840370663
H          -0.18843767237674    1.11620214339543   -1.69673154254873
H           0.32486468819045    2.32065699989147   -2.53157484035828
O           0.17010316763397   -0.84305404173789    2.54345952818508
H          -0.71363625758231   -1.02280886091696    2.14381745948652
H           0.73705110098872   -1.55060366634541    2.22266114273395
O           2.16054624356708    0.22814016030346   -0.52579746705136
H           1.59163657585951   -0.57602252368114   -0.53104403958330
H           1.86795180181676    0.72172848963818   -1.32096799505223
O           0.71311881868798    1.24651349299130    1.20420417890970
H          -0.12404298655290    1.16668385068195    0.61601345442409
H           0.58038992635228    0.48922238983123    1.88959423736503
H           1.48663695224949    0.88640012065983    0.51142331525660
