    19
        -40.91628504
S           0.21559398050458    0.49779651556631    1.16544103230175
O           1.23726176214765   -0.38687904173037    0.64948044867779
O          -0.23430193190028    1.43395117751599    0.03918627599981
O          -0.91147667738012   -0.14081176335112    1.76336599519266
O           0.84792419539637    1.44582042616001    2.21082193615552
H           1.77183920146917    1.63043092491310    1.90496238086207
O          -1.72581068402119   -1.25564928211126   -2.28365216017345
H          -2.37123214121405   -0.80728148008783   -2.83315769480002
H          -2.12002047319108   -1.29750961182615   -1.38328635538049
O           3.21281633652535    1.29651307632135    1.13664988269071
H           3.91609155208993    0.95283059252221    1.69282011891895
H           2.74534766180319    0.52769818849194    0.75841418232172
O          -2.76481082579288   -1.25782969681268    0.18256098075848
H          -2.16037819519936   -0.78393322455432    0.78574412193424
H          -2.95700360673051   -2.09481348967935    0.61003793228854
O           0.49988658777483    0.11324866408895   -1.95118107535121
H          -0.30291998514976   -0.42554848720076   -2.17980200266783
H           0.04588425954413    1.00611647174358   -0.86657877624944
H           1.05530897332285   -0.45414994996869   -1.40182721348118
