    19
        -40.91754654
S           0.76593680378957    0.80605460825412   -0.86036379254654
O           0.44898228692252    0.58047740152097    0.54999526329337
O           0.07542374516123    1.90141871217182   -1.44442928904868
O           2.28609132520947    1.01879162066678   -0.98506539525892
O           0.53221787368313   -0.49651181100460   -1.61635673597694
H          -0.45265412295244   -0.85061219517143   -1.49011232157897
O          -2.19478848441871    1.23234306007519   -0.04306938120259
H          -2.07331362969200    1.89728399793282   -0.72798799316361
H          -1.33710098380191    1.18557089608434    0.40138493374551
O          -1.80492333428948   -1.20948820646484   -1.09497848881670
H          -1.64234849263058   -1.65939740718444   -0.23935830206532
H          -2.19939972728024   -0.34509256828605   -0.84481445359741
O          -1.06162833232411   -1.52787520361800    1.46597450274929
H          -0.45514550242416   -0.79806153064049    1.25753827636305
H          -1.72726095671418   -1.16927596495000    2.05690147102237
O           2.84948472932740   -0.51394685245220    1.03153615237356
H           2.71804379972012    0.38209067606042   -0.36045063416896
H           3.35766205417844   -0.13455164745976    1.75273930914004
H           1.91472094855906   -0.29921758578986    1.19091687879887
