    19
        -40.91198914
S          -0.91913460860295    0.72966398914804    1.28234584575190
O          -1.59537791640955    1.06006545670085    0.06701443565940
O          -0.14878418292504   -0.47635315391065    1.28399242092418
O          -0.07260729062789    1.89462732511918    1.78356181328984
O          -2.00422319477246    0.59886520922558    2.41245099059059
H          -2.64936771092866    1.28960523712756    2.27200355934376
O           0.58018728220638   -1.36145152669746   -2.47661980110772
H          -0.01972827941114   -1.38889294405732   -3.22382517586728
H           0.13595519012206   -1.85016580797762   -1.75195596596362
O          -0.63589714325081   -2.54581136543549   -0.37401773191897
H          -0.53502017719873   -1.80381025676449    0.24999398213850
H          -0.19406561060560   -3.29610379681308    0.02863595806164
O           0.69524488621126    1.12698499045316   -1.45091693247438
H          -0.21084440827074    1.19897414912167   -1.11835102826167
H           0.75536009778541    0.24599493250256   -1.88310432519357
O           2.07903144779962    1.25326941822697    0.72364251654748
H           0.90177057310533    1.73450990503248    1.41333022482695
H           2.13305967849132    0.32463019937351    0.97083073312400
H           1.70444138809513    1.26539802032357   -0.20901152938050
