    19
        -40.91464313
S           0.80012557378960   -0.97012058485805    1.20017346518602
O           1.11228193376406   -2.29669172183437    0.75931544547963
O           1.00954872789564   -0.60303294625502    2.55376225011957
O           1.52836954358616    0.02147738672501    0.25832313477487
O          -0.71571555601782   -0.69602993197355    0.88445686059839
H          -0.94739066087602   -1.14078667250691    0.04542627190782
O          -1.34355260380153    2.14197858090184   -0.31447392698565
H          -1.42414387908620    2.98033027566327   -0.77335061824861
H          -0.99781797272167    1.50252329928094   -0.97241033939119
O          -0.09227126313723    0.41641980451941   -2.00029832965238
H          -0.40592314127343   -0.48977433434775   -2.10485692586668
H           0.73095893921171    0.35006288462266   -1.49878092967642
O          -0.56296957304709   -2.27414670203029   -1.26450219762158
H           0.19844636704214   -2.48693730089933   -0.68392761793140
H          -1.06164973037942   -3.08702160425881   -1.37268658283536
O           0.63752437396183    2.02518036036506    1.44297595275948
H          -0.19332134731896    2.13346377810226    0.91227298464556
H           0.41682985093102    1.53131684957128    2.24078693807835
H           1.31067040741444    0.94178858919101    0.68779415466569
