    19
        -40.92125646
S          -1.48347782801103   -1.24602941081529    0.62069327905464
O          -2.71217173279965   -1.92993742692023    0.72214740911043
O          -1.41146342464789   -0.16794948737631   -0.35319449991630
O          -1.07968075805192   -0.67350861102396    1.99187314038831
O          -0.35087850583832   -2.25165912636211    0.27115962643381
H           0.46692460275115   -1.76444725138517   -0.00935917751957
O          -0.43218566763631    2.28120877102281   -0.03295255435969
H          -1.03820222831002    2.90929735843007    0.36234170966001
H          -0.93478776275216    1.44896782410399   -0.16013073783845
O           0.39582332293912    0.48646747543934   -2.24721366699884
H          -0.43290541864550    0.18020217918196   -1.83709929783997
H           0.45378018138642    1.42167915761016   -2.02539177888488
O           1.76663738735971   -0.93209473621202   -0.54589799606646
H           1.34886919106725   -0.38308291987098   -1.27015792555724
H           2.38855471615601   -1.52569012023644   -0.97047206060581
O           1.03924220992152    0.68763287046557    1.57099065838965
H           0.67546163943052    1.43291543099016    1.04966394174658
H          -0.22410978910529   -0.13167462324157    1.90898591700326
H           1.56456986872876    0.15770266665244    0.95401402254581
