    19
        -40.91283192
S           1.04558473904203    0.02812875593919    1.09190949728913
O           0.61955398233876   -1.22101942801893    0.50589605725482
O           2.25831074138939    0.55646779906688    0.32843155111043
O           0.04415682614613    1.01547887838777    1.26935968248150
O           1.67795025476593   -0.31217549311597    2.48472346260859
H           2.24723425672120   -1.06863519810024    2.35952641757399
O          -0.44319447510339   -0.04476643292203   -1.75772725461460
H          -0.07528717741309   -0.67032207188938   -1.11831469225104
H          -1.26315865730237    0.30727818879133   -1.32401065083423
O          -2.03946862021969   -1.81951752047239    0.86209903173843
H          -1.07867609026108   -1.68619693330692    0.81927412505250
H          -2.24450384443287   -2.53303917973148    0.25436628097046
O          -2.36351430298813    0.73868867367912   -0.12208055883476
H          -1.73441196448090    1.17237414810325    0.46931239119113
H          -2.53553887067573   -0.12566930459427    0.29124213947148
O           1.38734442257266    1.75031145515809   -1.67291396012750
H           1.94348761066596    1.13258139225401   -0.49099260888678
H           1.96002609562279    1.63921931051659   -2.43616995043176
H           0.59410506347016    1.14081295028077   -1.81393097072859
