    19
        -40.91612642
S          -0.96475397697132   -1.12556959263136    0.90279544695727
O           0.15855626864814   -1.74688001381241    1.57963297844082
O          -0.87747130925424    0.35011756609636    1.01783694283724
O          -1.17722025762394   -1.54688215341237   -0.45060874262354
O          -2.25382711518606   -1.51646446066257    1.73293041518756
H          -1.95830116664189   -1.46380453599232    2.63674981874393
O           0.58393437895893    1.59669589994950   -2.15169427956269
H          -0.35050413848511    1.24574382348135   -2.05401455227972
H           0.50593670715931    2.50386224795680   -2.45274930786661
O           2.38682897958549   -1.07832140243484    0.46352723157167
H           1.55981092104520   -1.47605723748261    0.84821467796853
H           3.07927443120502   -1.21869970583702    1.11298491309509
O          -1.80037375869375    0.76182679991187   -1.53183753193395
H          -1.88040864350179    1.10064013850492   -0.63158113490953
H          -1.67161811611198   -0.19907923190162   -1.38806381073301
O           1.30917833331432    1.19650089925332    0.23173583460494
H           0.37097007485034    0.89312845365483    0.63235866692892
H           1.87215210301488    0.33318053062190    0.27284107068391
H           1.10783628463188    1.39006196467783   -0.77105863717044
