    19
        -40.91371024
S           0.27315066757405   -0.05492338083008   -1.69604279831837
O          -0.89111313471926    0.68356600279539   -1.30093353939907
O           1.53886205151111    0.56568804564102   -1.45915132623120
O           0.23717577900790   -1.46226210580668   -1.12878383526647
O           0.13789667495097   -0.32045321912420   -3.23929277483820
H           1.00528041110383   -0.57888841085025   -3.54292727385540
O           0.02832850044908    0.27167188106133    2.28458470654748
H          -0.87541358838547    0.08106247282249    1.96692293585077
H           0.29947051523527    1.08855645183279    1.81362477130526
O          -2.23073443346534   -0.22604455466489    0.86159860167007
H          -1.83078443609499    0.04031261956935    0.01394577428586
H          -3.06158876261003    0.24742298784916    0.93039700741353
O           0.56434427333217    2.20546782095158    0.48942833017377
H          -0.20518728725409    2.06895115357800   -0.07663557764949
H           1.29987551807026    1.85253893028232   -0.02889815289654
O           1.24908860164102   -1.63155166181558    1.11468144981329
H           0.83547035352793   -0.85718507787592    1.64391660941048
H           0.91445015671514   -2.43690479132848    1.51809909574230
H           0.71142813939787   -1.53702517409193   -0.16453401375256
