    19
        -40.92071442
S          -1.14148828417488    0.35204338951699   -0.87779190067508
O          -1.98232399427082   -0.73427849512942   -1.32539940951961
O          -1.13482631593141    0.46433004041282    0.59436722144992
O           0.20911374808649    0.30126311094082   -1.38813056973205
O          -1.80110275537811    1.68760825864070   -1.40474270905519
H          -2.73333956411182    1.49050816183128   -1.42272630207734
O          -0.08966844685491   -2.50538562743105   -0.95992647133323
H           0.54007519943125   -2.22215853490760   -1.62940099452190
H          -0.91299913988938   -1.99717958930672   -1.15210190666250
O           2.19540945672647    0.25790993322093    0.33152500783618
H           1.97681766395848    1.05913812631351    0.85276159039381
H           1.66475674192153    0.36583669508096   -0.49134219498048
O           0.74047523331188    2.12478387111903    1.55514966265651
H           0.51930069005241    2.36415366147989    2.45628440674637
H          -0.03689235315680    1.65644644283015    1.19118846121968
O           0.51554988671565   -1.33291044394834    1.21096132261021
H           0.33640531651211   -1.96381363239808    0.41659103044588
H           1.37850837338545   -0.72128071508185    0.91381318131420
H          -0.24377144550162   -0.64701463293318    1.12892056372999
