    19
        -40.92279188
S          -0.45550163611551    0.47705045925546   -0.80611055689048
O          -1.10373368890827    0.03692935818896    0.52965897987245
O          -1.08699932398095   -0.27460569660411   -1.84430838708233
O          -0.46519641936873    1.90213847448641   -0.90950330059019
O           1.02431463237749    0.04405054694039   -0.66165152211296
H           1.07067761848145   -0.97347933471125   -0.64804499106557
O          -1.64803638024617   -2.55838393926650   -0.59776050727532
H          -1.98289014521865   -2.23348447590840    0.24180240215722
H          -1.64376060876163   -1.78381915333026   -1.19336213836351
O           1.63744149511210    2.57031113296134    0.57969635317329
H           2.28293506109484    1.92064375964001    0.29002006640709
H           0.92206956400283    2.54061066806777   -0.08519626558363
O           0.97732471610702   -2.49798570976052   -0.67424376607116
H           0.00477426838903   -2.67657724335985   -0.57414703200408
H           1.21937074255426   -2.82581505412367   -1.54362490447011
O          -0.05790702635900    1.53417227846219    2.29843142613408
H          -0.71258193326882    0.59695812258014    1.28531937664280
H           0.68087291403994    1.95771081296530    1.78597441658814
H          -0.66317385993486    2.24357499349828    2.52705035055140
