    19
        -40.91793137
S          -0.42675098925931   -1.60443712919348    0.57645621761005
O           0.59526263400606   -2.19866743349607    1.40698468424941
O          -1.04858653902226   -0.43718309254622    1.22268635500743
O           0.02383965203671   -1.28138521561478   -0.76171346762632
O          -1.58464033342319   -2.66881890248379    0.41357044201188
H          -1.74964175907098   -2.97942381535515    1.29971986973717
O          -0.07966401614552    2.62662630837869   -0.81217037150480
H          -0.77461330252324    3.25529084474539   -0.60684104613333
H          -0.51123921798360    1.90050312420665   -1.34058582293524
O           2.31348257974286   -0.42603669535064    0.52817327405144
H           2.07729959910123   -0.59302501182241   -0.39213609974876
H           1.89806544368057   -1.17594254995362    1.01100322692799
O          -1.21889983808262    0.62321779255645   -2.04706649844908
H          -1.03170063338508    0.44626572464378   -2.97086847383857
H          -0.84136245733455   -0.13859544141621   -1.54618431623768
O           0.64621083566933    1.34546370078799    1.25572497702651
H           0.40750045324203    1.92586523900251    0.43230968973261
H          -0.14557229022673    0.62665573270949    1.33013586071782
H           1.45101018897411    0.75362683018274    1.00080148939183
