    19
        -40.92217195
S           0.33838116292348   -0.09182608867635    1.33616948065484
O           1.35985114987250    0.13826004217046    0.30607729259249
O           0.30112110235302    0.93985469189621    2.33248248224120
O          -0.93733118767152   -0.43554240622966    0.73387627689030
O           0.80058558699385   -1.43287981487455    2.07579015601243
H           1.28076251027682   -1.13326069458794    2.84210000273206
O          -0.04017915498949    2.59757527595699    0.24039353474970
H           0.87920525074874    2.70758533993732   -0.01403721036804
H          -0.01828154448473    2.13815081124655    1.09844933397157
O          -1.48848688520300    1.07758413467968   -1.41273792803101
H          -1.74989614656937    0.51260781358792   -0.66452701477293
H          -1.06571215445214    1.84720988105518   -0.97144370143234
O          -0.38686651015658   -2.47880726273389   -0.80038956055426
H          -0.74039744455947   -1.85188680956671   -0.12808222063743
H           0.24456066622228   -3.03401452167036   -0.33883231124290
O           0.48097081978127   -0.36179334903103   -1.95077367638972
H           0.14413851351609   -1.29581637098189   -1.74055571420089
H          -0.37816368564889    0.27135241801189   -1.89336200689883
H           0.97573796102942   -0.11435309018566   -1.05059722530068
