    19
        -40.91793100
S          -1.66701422107394   -0.23226589323037   -0.50682433063401
O          -2.58282502505489   -0.36333482046851    0.60298508907498
O          -1.09108098410757    1.11992568532136   -0.58586580768708
O          -0.62955744293466   -1.24279316403874   -0.52992683953024
O          -2.50349199235137   -0.41895537404397   -1.83561523705314
H          -3.27253865129233    0.13075330032732   -1.71175364993805
O           2.62324176621116    0.80987197874533    0.17229101213389
H           2.99934563254384    1.58470795790958   -0.25016520101780
H           2.30307403280337    0.22105353146599   -0.56504264611345
O          -0.55357269540994   -0.81206925737501    2.19916263821759
H          -0.18365840298369   -1.47941296420279    1.60896898391072
H          -1.46134810895671   -0.67217122253112    1.84636956317342
O           1.61792429130390   -0.67201339838679   -1.73271457765537
H           1.99891891771257   -1.52759805649254   -1.93912850862331
H           0.72149911988056   -0.85921120519348   -1.36512913193690
O           0.43229040511940    1.36070627924743    1.33035344496363
H          -0.23582734590671    1.37448149697238    0.49204164243814
H           0.11991251624535    0.52114869415488    1.84065481441476
H           1.36470817750179    1.15717644131386    0.92933874101047
