    19
        -40.91855608
S           0.46961216750304   -0.58735849358187    0.89106716963941
O          -0.03849854985218    0.76573692179985    0.77520008603633
O          -0.66194683274903   -1.57080452639577    0.58623425108596
O           1.63222025514187   -0.85875221937268    0.11255280453624
O           0.76878651794910   -0.87345483271553    2.37663383255768
H           0.03022761019364   -0.44898233796806    2.88327118557126
O          -1.16074307518270    0.67811112866211    3.16420379063048
H          -0.92416130772700    1.40806858538171    3.74175872054679
H          -1.00134790037551    0.97534977138340    2.24879300565091
O          -0.41255855926907    1.16340032530329   -1.90514644721925
H           0.48760628326632    0.99609986570189   -2.24760373634577
H          -0.30339165912354    1.26449839623975   -0.94587183053795
O           2.15336631106645    0.38193606017094   -2.25086532699909
H           2.06080056063483   -0.18171893841753   -1.46280692199228
H           2.95532935569942    0.89184908135608   -2.12459222995072
O          -1.49708566182049   -1.17860553269010   -1.75151854026555
H          -1.10594419696579   -0.27243849192480   -1.94789838451792
H          -1.00101782583358   -1.48045969934541   -0.38830158189218
H          -2.45125347263704   -1.07247509347372   -1.75510985633096
