    19
        -40.91541001
S          -0.72544942151316   -0.10300819248623   -0.23777131156867
O          -0.34913324568577   -1.38597068716971   -0.73782432612246
O           0.38637949900050    0.72657155552252    0.18780451703066
O          -1.54851941620588    0.66093286795193   -1.28354203843498
O          -1.73293262889503   -0.20835109976773    0.91760170319629
H          -1.35233718700521   -0.72287777502982    1.70478640593139
O          -0.67528460153584   -1.31422948584303    2.96475645550574
H          -1.11016259637504   -1.02249100004498    3.76986058600593
H           0.20633895646021   -0.87580985803278    2.93691138678601
O           1.46668811776604    0.20901959802852    2.57757299728254
H           1.20011821586317    0.39874723351551    1.65592267563602
H           1.67610833357743    1.05594029487504    2.97632771357638
O           1.50490212414174    1.04218741884978   -2.25713174665741
H           1.54947968605864    1.98816382849856   -2.41112333765123
H           1.24811261742287    0.92624351490244   -1.32527386022887
O          -0.48152962730624   -0.44728510257085   -3.28430181139296
H          -0.34989084558411   -1.25799555366076   -2.77252255932685
H          -1.26884998711119    0.27712713036739   -2.19280713920295
H           0.35596200647754    0.05308533196598   -3.18924631027325
