    19
        -40.90548338
S           1.78337472203343   -0.56210803516934    0.72026720005638
O           2.01385311329561   -1.78401107197303    0.00888648629144
O           1.51499609951462    0.58632503655534   -0.24972552754975
O           0.79506848194069   -0.60510143666097    1.75243247599842
O           3.13819708686274   -0.11367024901478    1.36913571130817
H           3.82350642284475   -0.25900094047833    0.71961825273131
O          -1.39748447713389    0.96699738735876    1.80937497666557
H          -2.07039572224397    0.62177589664343    2.39867448888515
H          -0.58149113485641    0.46278373940889    1.98086878988532
O          -0.63976534575223   -2.10175993468306   -0.31781685358862
H          -0.88855764229404   -2.37449650592905    0.56819842821728
H           0.32552699997155   -2.20238748174803   -0.36534238046911
O          -2.04152840494345    1.94716620734008   -2.98650825101226
H          -1.71951412671815    1.40998227499240   -2.25129069554155
H          -1.32566901338269    2.54085183315623   -3.21774195185449
O          -0.92380706165970    0.50398054135010   -0.75864664544641
H          -1.28868476816821    0.81599623426803    0.10153014990828
H           0.49877675503776    0.62327381668387   -0.52735687769401
H          -1.01640197579249   -0.47659730190371   -0.75455778537542
