    19
        -40.92044584
S           0.35780584836688    0.67492521955927   -1.40165445654793
O           1.35362945091696    1.37274830115788   -0.61195931870390
O           0.67764191205064   -0.74431444761335   -1.53686511428011
O          -0.99910517151800    0.86883690666219   -0.92055661922288
O           0.40451169159547    1.30794953390463   -2.85157812872106
H           1.33353432094110    1.45143191095442   -3.00485303414858
O          -0.27784450634140   -0.97939010692947    1.90156180656974
H           0.72650717850815   -0.88178220755300    1.58134829382718
H          -0.63076453550955   -0.01613169879380    1.94426384791876
O           1.97631046465877   -0.66137568397877    0.85327926362738
H           1.94687248455866   -1.25251827951271    0.08914842398900
H           1.87745307935161    0.23502304125003    0.44002661594629
O          -1.11623326778900    1.39440960621156    1.60850255725178
H          -2.00925604279751    1.68432817450906    1.80416946532644
H          -1.03821346373730    1.35440479085053    0.61975640266054
O          -1.31480581412674   -1.76349377442625   -0.25574536305900
H          -0.54150947026594   -1.54605878100957   -0.84074212662480
H          -0.76517607850715   -1.40981892710655    1.07631952759082
H          -1.96135809029948   -1.08917357809107   -0.49442205339553
