    19
        -40.91167209
S           0.58568251610801   -1.41001392036168    0.34585010989046
O           1.31349421906493   -2.04724880624039   -0.70390919523168
O           1.19714733209276   -0.03495791392834    0.62672005317378
O          -0.83409609543841   -1.32160007716002    0.20181380718489
O           0.84842289787481   -2.17506789434181    1.69151926776902
H           1.76434692427940   -2.44602180581158    1.70873149344267
O          -2.13012645706739    0.45773253341768    1.77214185921808
H          -3.07318200111875    0.33243596121800    1.64943233529472
H          -1.69120577206863   -0.26969901030107    1.29680589100852
O          -0.68239959062483    0.60485372686495   -1.83724316361315
H          -0.82449441747072    1.35205139701613   -1.21065986334408
H          -0.97254493012063   -0.18217502233226   -1.36039122047865
O          -0.78559084220807    2.26965498870778    0.25790950166377
H           0.10390106132202    2.21079826146944    0.61378000920731
H          -1.34659706831333    1.75938720474455    0.87526304380914
O           1.89699490329984    0.45407805591624   -1.69502293714790
H           2.08700642424422   -0.45918113392172   -1.94391083309792
H           0.95130486652490    0.62105534775380   -1.98026910924067
H           1.59193602958810    0.28391809713480   -0.30856103934002
