    19
        -40.92079086
S           0.58494654878118   -1.36127774795432   -0.10572430284951
O           0.88035733058975   -0.49055545475750   -1.24509638627778
O           1.69311624392874   -1.47263939567161    0.80738386142333
O          -0.67461879576645   -0.98955151188575    0.52399950804883
O           0.33201881882657   -2.80129179038632   -0.71203549267592
H           1.20029764474488   -3.08057824078501   -0.98507338307810
O          -0.60845318811419    1.48325486522704   -1.36279207077688
H           0.09736624756451    0.70378462595790   -1.43657371838003
H          -1.48605622247872    0.97842572742758   -1.43604798568056
O          -2.55182570018879   -0.16310932760084   -1.11090067853157
H          -1.93934607666257   -0.65860900291322   -0.51733072298867
H          -3.33396646703729    0.03525291531517   -0.59209311260266
O           2.14091779143185    1.05367492951088    1.44425823596524
H           2.63611760518593    1.06695791560771    2.26548950484116
H           2.07528080316231    0.11044448485514    1.18024978995525
O          -0.41860632791866    1.59596830832190    1.12007256772884
H          -0.64141636076602    0.64450515875191    1.17446457018995
H           0.54767858172173    1.62236531262530    1.31407268695138
H          -0.53380846699870    1.72297823834747   -0.32632289126850
