    19
        -40.92179383
S           0.43032081529070   -0.39445753090741    0.76658288655094
O           0.89746366226580    0.88659389800825    0.02134329323006
O          -0.79523132295330   -0.85321464980753    0.14354880711678
O           1.47879601760688   -1.35717129162343    0.79426605353638
O           0.12927126516225    0.13396084901265    2.16480970151151
H          -0.38365921405772    1.01892354147257    2.05818697103576
O           0.52593294627982   -2.19882914403181   -1.79758363342164
H           0.92811157100717   -2.89222689377943   -1.26765860366549
H          -0.13420102721913   -1.78440985567837   -1.21662383866782
O          -1.07663397207197    2.28681583161997    1.61219899832942
H          -0.43622350956279    2.69458500255155    1.02174110331590
H          -1.80127720380682    1.94404732268367    1.03132318975921
O          -2.70527106617413    0.99299008111702   -0.00766063768481
H          -2.06041508150239    0.25901840280491   -0.07385071031046
H          -3.52876654371923    0.60387719014808    0.29287693610006
O           2.34486354563970   -0.25963562178985   -1.71358288908742
H           1.50152368007530    0.57197371803259   -0.73719103296128
H           2.98239454275600   -0.68361148759516   -1.13101592173446
H           1.70300090077037   -0.96922936858338   -1.96171065243284
