    19
        -40.91628500
S          -0.32182846729270   -0.14736931721357    1.23860259996336
O           1.10069500209513    0.31460326269799    0.90685841874596
O          -1.25117085608305    0.58898479202258    0.40964832442542
O          -0.41564861411291   -1.56887849335485    1.16078129784382
O          -0.51833973672829    0.27222708263085    2.71406335000700
H          -0.76016941994840    1.23279992874100    2.70684380299563
O           0.56660021935100   -2.81461288988087   -0.99926698152667
H          -0.11049059422872   -3.45683096252125   -1.22134049978707
H           0.28131157437136   -2.40735903568640   -0.15865433610767
O          -1.42533997242417    2.62700765607792    2.07975512961649
H          -2.31361720708704    2.84019863090304    2.37555256796877
H          -1.51375234699506    2.12075004114601    1.24997348230365
O           1.16979410412993   -0.88912648321266   -2.75716306923625
H           0.93002123637059   -1.61908850610949   -2.14278211231190
H           2.09217322177193   -1.02531782158182   -2.98110680979614
O           0.72803581211296    1.29936423580449   -1.35948740340887
H           0.91003240452927    0.54098889140425   -1.97488190814364
H          -0.22804342724497    1.31026727215189   -1.22489039767056
H           1.07973705723456    0.78139171732875   -0.02250545851453
