    19
        -40.91793145
S          -1.27608309618684   -0.80948545166110    0.89711304810089
O          -1.38732105121546   -0.35057166898512    2.26260909152545
O          -1.65218148380495    0.23821597270433   -0.06610011085959
O           0.01830766538411   -1.37400699817803    0.57527427726267
O          -2.33195549140711   -1.96980292594163    0.69886223871316
H          -3.13957782308443   -1.62279880058948    1.06811250282499
O           0.11515204440943    1.94696634507150    0.01522707792392
H           0.72542245934981    1.70744932355791   -0.78556564918146
H          -0.72542683923519    1.28599959177154   -0.06564745440421
O           0.79316970746113   -1.32692111749053   -1.91889532124390
H           1.45229228064792   -2.02136746194090   -1.97475132610756
H           0.41438028392397   -1.38940093606202   -1.00982407135640
O           1.49908589061815    1.19018916989660   -1.97450401868011
H           1.15973618424497    1.55384255424655   -2.79483481243567
H           1.28386451875921    0.21757108610629   -1.99369221252087
O           0.98723622206965    0.74049179619806    2.07227400575874
H           0.11111383520333    0.44203377614280    2.40644534753607
H           1.37814714297804   -0.06549285568512    1.71462282458185
H           0.57463753995558    1.60708860105902    0.87327455273056
