    19
        -40.92139828
S           0.96995800628017    0.70631677448031    0.17076150886571
O          -0.14140076284623    0.94790335399593    1.08594265505269
O           1.29765689486900   -0.71797418850384    0.13636149553496
O           0.69112671684515    1.22051617795112   -1.16777649743105
O           2.21563123923602    1.47909708039388    0.69097217578453
H           2.34952116461813    1.09723853972851    1.58257507107415
O          -0.34208456828403   -2.03405912538091   -1.36394606366677
H           0.30537479939903   -1.60971322155034   -0.73431181622791
H           0.18793474777604   -2.53949908242471   -1.98391696738604
O           1.74834086695562   -0.07729105705583    2.76484759687821
H           1.78075355855950   -0.79895222161610    2.12341002222114
H           0.85426654066366    0.28287789114868    2.68807340551630
O          -2.52008183970999    0.69183947354723    0.07522070890505
H          -2.90984441836621   -0.04247242495301    0.55493027387305
H          -1.66531165945011    0.90316450207043    0.53563463054181
O          -1.34018328593351    0.17219292048604   -2.09508877415030
H          -1.03561875494615   -0.79914092884912   -1.92532755846657
H          -1.97875743555294    0.40059978769192   -1.31328053808230
H          -0.46728182005808    0.71735575881397   -1.82508132880199
