    19
        -40.91749345
S          -0.12287728854952    1.20580526694458    0.48062850293438
O          -0.50122182558725    2.56183723163955    0.72552017444662
O           1.34059610869898    1.14921612628975    0.04675577102310
O          -0.35859331075778    0.24572328416139    1.52079642778122
O          -0.91351736098390    0.70034781643480   -0.77598784267805
H          -0.95594678839723    1.47491170245831   -1.39291597232695
O          -1.40566444731553   -1.91252662197486    0.27442173597357
H          -1.12908469967869   -1.19022642586537    0.86696516708524
H          -1.75917716798805   -1.47315973192107   -0.50305302597630
O          -0.96393962784550    3.07300029354553   -1.82744329409790
H          -1.81301651373535    3.49757720766575   -1.97368067192380
H          -0.70746936628017    3.26653102690385   -0.90627169170306
O           1.01112236861449   -2.88692398038871   -0.30995301557731
H           1.08640897053849   -3.79667630726016   -0.01747340358433
H           0.07580937305342   -2.61849040453034   -0.15354493070818
O           2.10189685432157   -0.96965621334314    1.14824067051590
H           1.40905431867415   -0.90617275550293    1.81720757991491
H           1.83180344849700   -1.71021806687540    0.54670624242936
H           1.77381694480189    0.28910054164537    0.43308158646674
