    19
        -40.91641689
S          -0.71320755267250    0.88829733563395    0.23392237002107
O          -0.78465716873113    0.78815102906713    1.65973385394953
O           0.63068314757954    0.82331206557598   -0.30029813974879
O          -1.58043929222580   -0.16585074047534   -0.42648778163692
O          -1.37103655578486    2.22159218614445   -0.24020655344596
H          -0.85368361040204    2.93470029756313    0.18920398332457
O           0.42457053801465   -3.07022216288207   -0.81258558429499
H           0.69422333615703   -2.59393038653164   -0.00034256321014
H          -0.32727234470704   -3.61484977203880   -0.57315760087184
O           0.95336132931966   -1.39816007637956    1.25347221670521
H           1.20421873986377   -0.63768084271947    0.71043427953826
H           0.28268059852509   -1.05657589516619    1.85444116809778
O           0.54237176095803    3.21630995899841    1.26905435722226
H           1.23260861584091    2.74018720663666    0.79569754581639
H           0.25382769274281    2.63500556706514    1.98276273875702
O          -0.15733510630594   -0.97665666387811   -2.29697777669978
H           0.10352927860882   -1.84986644863517   -1.89874270512591
H          -1.09890316831198   -0.51722160482534   -1.30095801466536
H           0.56445975161095   -0.36654108302137   -2.09896577371918
