    19
        -40.91890441
S          -0.43643973091840    0.93140268739348    0.36897292351429
O          -1.62250172373829    0.35737533363868    0.96064963569454
O           0.76769666750773    0.12724600854045    0.73257776005648
O          -0.52518617904663    1.05794819860920   -1.07069706407974
O          -0.18933410427886    2.35147521505243    0.95233665582318
H           0.04304779124271    2.18592458080030    1.89047019586057
O          -1.88846953546013   -1.69230539749620   -0.59049420216922
H          -2.21964185611986   -1.29586612738206   -1.40084491351038
H          -1.92535167559483   -0.96954085688717    0.09190567910376
O           0.83207347648561   -0.39119432241889   -2.73921718192565
H           1.65942945208361    0.05277574855602   -2.93460115366653
H           0.27721854481329    0.26158108083971   -2.23906567933525
O           0.81776567602444    1.27155717365240    3.13467453794782
H           1.70737030397961    1.53095042035385    3.38624369296316
H           0.90725143318318    0.59682282913779    2.43765396385478
O           0.62146571052632   -1.87978028796444   -0.69785376014793
H           0.77849193241153   -1.08030465650120   -0.00895461613861
H          -0.41690056497681   -1.97993183528924   -0.66880795791303
H           0.81201438159444   -1.43613578257172   -1.60494850608701
