    19
        -40.91505808
S           0.20984355230014    1.14058030797653    0.94773643741452
O           0.09813617130907   -0.25378540463260    1.32474675409068
O           1.37400669397789    1.81105916926357    1.39601934616872
O           0.08908524424058    1.24290660672624   -0.59051970116591
O          -1.07886215511813    1.86241265857071    1.41410530445317
H          -1.82101057186076    1.26134305480227    1.18008509742744
O          -2.46655621834429   -0.33496718433084    0.85884843658363
H          -3.02398393246750   -0.70223201422731    1.54865196070032
H          -1.54530517302942   -0.60140640055987    1.06164950661675
O           1.44163561125080   -1.75026559332510   -0.53072326687998
H           0.66840706447637   -1.82312769106943   -1.11680305834325
H           1.07499710330248   -1.45153936777399    0.31566185701143
O          -1.04048525855835   -1.15127628872142   -1.63292933356741
H          -0.78567686846183   -0.22129645964040   -1.64045663687996
H          -1.82066278243963   -1.20053059889317   -1.07234483287962
O           2.42770610961617    0.58615521707372   -1.14100462848956
H           2.25123059381978   -0.38822030686493   -1.00198237704363
H           1.05159025522480    1.06466000949596   -0.95558224444426
H           2.89590457890502    0.90953028471501   -0.36515861908753
