    19
        -40.91295831
S          -0.29756884497184    1.25537061629400   -0.83479753260698
O           1.14497625604727    0.86185084830096   -0.53939525734494
O          -1.19054939546311    0.28561048267251   -0.24736778614073
O          -0.55874958250333    2.61341668291679   -0.49864373648043
O          -0.36501296241678    1.09015598175578   -2.39013671726987
H          -0.28602799451827    0.14047506416440   -2.57513288065063
O           0.60954792596897   -2.54890509688044    0.51579315065832
H           1.49999630294808   -2.87622599396209    0.37379525531198
H           0.25090684664164   -2.32799270766385   -0.35983302079136
O          -0.52218915064594    1.91341614312117    2.17366006653151
H          -0.73144099699534    2.22973820119135    1.28202888768297
H          -0.07826417344259    2.63825293001425    2.62090576412160
O          -0.61729278263205   -1.63487042813854   -1.84990976488907
H          -0.97601431230307   -1.01945550464844   -1.16634952572987
H          -1.35969393031761   -2.15631794282860   -2.16387432277342
O           1.11026453153346   -0.18119034696267    1.69773496682090
H           1.22790146015962    0.41566117278012    0.43708719382011
H           0.38533947067687    0.36804941947035    2.06154427984965
H           0.75387131240074   -1.06703951160972    1.46289098978963
