    19
        -40.90294277
S          -1.34754353678793    0.69434995268347   -1.97361539858389
O          -1.26360478612894   -0.75502257262757   -1.46225285161671
O          -2.28831545158960    1.43785827487010   -1.18770534397478
O          -0.05076862867188    1.26246044906387   -2.12978958928469
O          -1.97155747219215    0.46803614683741   -3.39771628725173
H          -2.89967983919491    0.27616491204129   -3.27327581952541
O          -0.21344979608848    2.13413357337116    0.44755879615378
H           0.24311258241755    2.17927808353874   -0.40406460979276
H          -1.15040460814860    2.19722207851375    0.21415680511083
O           1.17215655610384   -1.78624704733823    2.94609368770458
H           0.47739022198182   -1.34842381324907    2.43130691350629
H           0.87498436421924   -2.68426181025315    3.10060561812727
O           2.63761213834089   -1.01435927489612    0.75532904513746
H           2.43189158478335   -1.39257988924448    1.62958209603113
H           3.18995699413866   -0.24574638648601    0.90918105977124
O           0.00884847628174   -0.48841417888108    0.69161486132329
H          -0.75637440684494   -0.74837858703837   -0.56387194444780
H           0.95556460900917   -0.68251142950515    0.49462575736188
H          -0.04981900162319    0.49644151861512    0.77223722426097
