    19
        -40.91907734
S          -0.53824541972149   -0.88216404114876   -1.30882732834807
O          -0.25632903366753    0.56908277754016   -1.32485158530323
O           0.53473215311381   -1.63921956677817   -1.90988141679379
O          -0.90500477544670   -1.31860967699858    0.01876633884682
O          -1.81365919950774   -1.06735376016090   -2.22789314894638
H          -1.47367325557074   -1.12920985235414   -3.11676202295447
O          -1.88832616244305    0.99271861234393    0.82977017136550
H          -1.64609063122522    1.32774997918815   -0.04340109030260
H          -1.75311925701683    0.02918602538780    0.73621686487366
O           0.23687079910449    1.61641902840564    2.20489221023313
H          -0.65169048628341    1.38324077013103    1.80648155839864
H           0.20499044463609    2.54864717992131    2.42728655054808
O           1.80822368206065   -1.62271344065836    0.38268111226802
H           1.00827804268105   -1.85744381460141    0.87090008484930
H           1.56706927630902   -1.80357832907129   -0.55332135921118
O           1.64554817537987    0.89332661264577    0.23521559752829
H           1.16139567909549    1.22035400870612    1.09545046565290
H           1.87027368007311   -0.11271152381962    0.37660574117735
H           0.88875628889837    0.85227902142670   -0.49932876369303
