    19
        -40.91628504
S           0.76984033084641    0.19662346145219    1.01043219368346
O          -0.31151728882119   -0.88413350395943    1.11010331333100
O           1.42199845316483    0.07946632910639   -0.27549076047803
O           0.22248278814343    1.47917689199093    1.31206619677292
O           1.77608972014580   -0.17615222361977    2.12394191157547
H           2.35851064393042   -0.88710820136243    1.75436085713250
O          -2.56312328800196    0.39441360938122   -1.74500874431887
H          -2.39433463407065    1.09569144461167   -1.07602216556731
H          -3.44411069506041    0.06264888766624   -1.56231831389318
O          -2.07765364454789    2.21806547500309    0.15236107047425
H          -1.28986560598219    1.94816779598617    0.66251487474813
H          -1.92399534324624    3.13012958250799   -0.10218770726009
O           3.16748388846706   -1.71859021443607    0.55748264427372
H           4.08983661337130   -1.48306831494404    0.43164886348529
H           2.64629716847942   -1.17741786100339   -0.06552569985841
O          -0.66389807896671   -1.37913686007686   -1.31390288168755
H          -0.53348829235017   -1.20745159540417    0.14671398516624
H          -1.40409430771463   -0.76763434670994   -1.56932540316926
H           0.15354155222411   -0.92369034618484   -1.55184423441594
