    19
        -40.92120559
S           0.86051868392279   -0.92181613610411    0.55864431161198
O           0.26104404690039   -1.23904642072564   -0.73815766424821
O           2.28523588059834   -0.74476639332102    0.49817889931092
O           0.13039885400857    0.14304729950982    1.22675865961083
O           0.59560902003772   -2.21067316807306    1.46407359529324
H           1.35282687402584   -2.76695862972853    1.30749858393817
O           2.00722332438192    1.30164344264347   -1.19147673168412
H           2.15673548555541    0.52193243891693   -0.62246920386643
H           2.84376543377787    1.76983274909593   -1.23111898356213
O          -2.37226576286619   -0.61325525036504    1.07299271074124
H          -2.40860363718006   -1.55738288322796    1.23733803680180
H          -1.46906500127874   -0.32338784031622    1.33834947568193
O          -0.40891505409636    2.14848641295120   -0.46115534914297
H           0.45690599632247    2.05006501725523   -0.91242038995024
H          -0.25852150623737    1.71613696522643    0.40064077099882
O          -1.69890548349652    0.17214772666516   -1.27148307566170
H          -1.25187294050508    1.11340550020409   -1.03870585626049
H          -0.86736167375684   -0.47044841734278   -1.19908764466438
H          -2.21475256049545   -0.08896240256973   -0.43840016469965
