    19
        -40.91415017
S          -0.99161488859694   -1.54839627267783   -0.93119172228765
O          -1.86647933288611   -2.43844639845710   -1.60211439419047
O           0.30882829818391   -2.22089467270534   -0.57612476909545
O          -0.75541761297436   -0.25361295173064   -1.52034075735973
O          -1.63991294812353   -1.20568278385046    0.48878641250866
H          -1.95214284882740   -2.03815253400732    0.83209191158369
O          -1.09501341500288    1.67215514342817    0.29796076152393
H          -2.00569060498068    1.65107837420760    0.59638216252885
H          -1.02801950229575    0.97851787815586   -0.39052744693272
O           0.58143621871822    0.69557995838682    2.15889634536557
H          -0.08645412983921    1.07937059626758    1.54805786317197
H           1.00721562159119    1.43099986292551    2.60264664301222
O           1.41752275067931    1.38101772149624   -1.44896702811326
H           0.98936579157383    2.11074349591337   -0.99199899960092
H           0.69428522224914    0.84867150955384   -1.81676437591085
O           1.92900316693964   -0.57923175687969    0.27245261927241
H           1.92821813070568    0.14820029185226   -0.39875450579723
H           1.50015767209967   -0.19926500487092    1.07947263809344
H           1.06471240927732   -1.51265245618463   -0.19996335860249
