    19
        -40.91188297
S           1.13066716829293    0.21819173166840   -1.30926871754205
O           1.55467561781624    0.03809577246729    0.15105220160060
O           1.32216596019361   -1.00348853985917   -2.02013252956917
O          -0.15701700965928    0.83688612031419   -1.38071126564801
O           2.17233908137630    1.27753717840990   -1.82404350290846
H           2.96911880128189    0.81514967440438   -2.07759774856447
O          -0.27876999071690    2.09484945061445    1.03144893575503
H          -0.32705000569049    1.83550534440491    0.09661934156810
H           0.56078172856773    1.75204457271995    1.34940910138155
O          -1.58736860852229   -1.20624989548921   -0.11759103538166
H          -1.90632839971047   -0.73016702879595    0.68300497975782
H          -1.32188217970403   -0.51656428904624   -0.74060158907886
O          -2.21276749077593    0.42911646856360    1.91339648219426
H          -1.53244020815776    1.10701778710529    1.71090928815001
H          -3.05795924835626    0.88059676515252    1.89657387941759
O           0.70438899652818   -2.25829931105349    0.40351440323374
H           1.25907860861238   -0.96912179207841    0.39575686586111
H          -0.26665690075687   -2.00574554579063    0.29720570301639
H           0.97502408376172   -2.59535445361610   -0.45894478394099
