    19
        -40.92218947
S          -0.38414010594689   -1.05799336012841    0.27100273770843
O           0.10775718509988   -0.98259621259257   -1.10089739507148
O           0.61640083265345   -0.56687415817622    1.21327114093749
O          -1.65335687488384   -0.34657218270279    0.42243997863447
O          -0.67493072174205   -2.55060248998007    0.60323801365601
H           0.20478539978506   -2.96522452258135    0.48429904418726
O           0.58851758703295    2.00437520644515    1.54532352621518
H           0.71140624641395    1.02188109210229    1.44637139715091
H           0.40482202520353    2.15663079571816    2.47484521031116
O          -0.22765192152657    1.33452771662558   -2.21462996499153
H          -0.77930474579067    1.18828363610365   -2.98613942052905
H          -0.00863900040358    0.43180585936817   -1.85776216854308
O           1.89714765012775   -2.69269545783349    0.06563996595548
H           1.98422840866062   -1.97915090683162    0.71172604660347
H           1.66777981222867   -2.24929659170486   -0.76175162656869
O          -1.34967740144484    2.05330304741840   -0.07082300760541
H          -1.62401910000485    1.05436723293633    0.16669473355913
H          -0.56809750961923    2.21459368221988    0.58849511721573
H          -0.91302775532513    1.93123761104883   -1.00134334929142
