    19
        -40.91628429
S          -0.58587557025571   -0.25845364086022    1.11831783709795
O           0.01422825313611   -1.42772650069609    0.33153927692738
O           0.35655123417274    0.83925876594859    1.10497482840289
O          -1.89520120176775    0.04483067948942    0.63973053830809
O          -0.70960792893870   -0.80058890661136    2.56139617033853
H           0.18194851961995   -0.70106129116521    2.98160374375972
O           0.17866480039059    0.30109484632293   -3.10571255742636
H           0.15299868721593   -0.40488632729429   -3.75415576910872
H          -0.72681876247229    0.35063686968169   -2.72440586107131
O          -2.25780940060225    0.34354161400444   -1.99881979668861
H          -2.18676410475888    0.15330199338844   -1.04354599865663
H          -2.79049418838706    1.13831480575914   -2.06794612097168
O           1.67445575439035   -0.00352433066131    3.23208081275121
H           1.72766081913187    0.62491577245482    3.95609170580982
H           1.48587731011026    0.50779816170749    2.42237688629028
O           1.72053707276362   -0.21662309481317   -1.03403870700387
H           1.23440702433661   -0.00435033650804   -1.87408790107273
H           1.64678460752998    0.56875297948642   -0.47719024661653
H           0.77845708442213   -1.05523205962553   -0.26820881104545
