    19
        -40.92218956
S           0.15670158832338    1.12649956550476    0.21564543578327
O          -0.11595364209853    0.36118665157709    1.42809988299198
O           1.49327036623197    0.84105644837138   -0.30576848403750
O          -0.86999836787094    0.88982764588293   -0.79417895266730
O           0.14141348026280    2.63967370071143    0.58071626210752
H          -0.76986218876426    2.76230840476901    0.91933646706989
O          -2.31411485245321    1.97969018228796    1.25792958513714
H          -2.37678973674246    1.61867778804801    0.36375684969223
H          -1.89396818834211    1.28112222533687    1.77702851819043
O           0.76688976388507   -2.07565410220120    1.35814442802500
H           1.39105887653527   -2.15967710191355    2.08221432109006
H           0.34803178432473   -1.17859901975853    1.45865799180308
O          -0.45774254152891   -1.21656415986364   -2.24798677351385
H          -0.72838864340637   -0.42354537695426   -1.71102559999872
H          -0.38732176336101   -0.91122037729369   -3.15503109241464
O           1.67365038997849   -1.53943109535854   -0.93555680280983
H           0.84322867978090   -1.56428779335133   -1.55347707371356
H           1.73845988711517   -0.50310934391066   -0.71025871029362
H           1.36143509733202   -1.92795422299773   -0.02824625312688
