    19
        -40.90722370
S          -0.28314060754451    0.50630255741206    0.01026675659266
O           0.55647856447168   -0.55749715290320    0.49955572277306
O          -0.02992619438214    1.80811524123906    0.52950502962431
O          -0.18863892136520    0.50389353454138   -1.53382747561068
O          -1.76807421123898    0.14592719881103    0.24173057168134
H          -1.84771414666329   -0.82986380855518    0.09988982834047
O          -2.85805054358300   -1.71803957003947    2.45782484989274
H          -2.80460072094288   -0.80583687307795    2.16510045781282
H          -2.40090526247177   -2.24965748928853    1.79980053508620
O          -1.26349806879322   -2.40914139951801    0.05092316849635
H          -1.11921864008828   -2.88112254229194   -0.77251369804869
H          -0.40473399618753   -2.03474061242276    0.32920746099997
O           2.41262755048188    2.67129134558332   -0.22850580421939
H           1.56159180281382    2.47860476656752    0.20615507519629
H           2.33398543074129    3.55074393762075   -0.60370260025393
O           2.33657763520429    0.36807410883415   -1.54373987673606
H           0.81030366869362    0.45329934059210   -1.73558782369868
H           2.55956380323812    1.25033511734536   -1.16432687614721
H           2.39737282694898   -0.25068769200845   -0.80775530018263
