    19
        -40.91103813
S          -0.58493307057438    0.92903438538084   -1.06578224464164
O          -0.61346473606464    1.23479196771013    0.38053000606446
O           0.58373487097115    1.52569768633060   -1.68073978772273
O          -0.71150851086758   -0.48570881626110   -1.30685191236578
O          -1.85445666719312    1.62871790204493   -1.66796624519940
H          -1.72987035767616    2.55237954616483   -1.47062909088659
O           2.55752386973420    0.26151858081937   -0.60616249551912
H           3.29874683711568    0.86987054746604   -0.56046673774861
H           1.85108079429165    0.72488662448584   -1.13501441451004
O          -2.46112290513365   -0.48893708656363    1.61498609475762
H          -2.01070057249001   -1.31240278025067    1.41212464189186
H          -1.95126312901242    0.21484801707768    1.19460823964290
O          -0.15969862603184   -2.20179840933401    0.53732403202383
H          -0.47903831027927   -1.64062216455574   -0.21906400169836
H           0.28805777406808   -2.95479220887883    0.14653831479913
O           1.11458535791643   -0.19203355487835    1.41396719704333
H           1.83130905260471   -0.05640838857492    0.68086925268324
H           0.35813669479962    0.49226353708689    1.11137275417613
H           0.67288162018837   -1.10130538068415    1.22035641787244
