    19
        -40.90993978
S          -0.57966801693955   -0.22932098593679    0.63685742308926
O           0.13637587603450    0.32293720007422   -0.63946312184548
O          -0.61672338127708    0.80853729726931    1.62477936049157
O          -1.82323348460981   -0.81630031041019    0.26755939684568
O           0.40724149465169   -1.33663639102606    1.06766673978980
H           1.33124492518943   -0.92464915885961    1.00458506415953
O           2.23540778633202   -2.82536791904260   -0.67304340632344
H           2.59087192192337   -3.64957023842185   -0.33442114214238
H           1.34966570043876   -2.72845293721968   -0.30426273592322
O           2.67602925184586   -0.37021974762411    0.41136492638976
H           2.31832796926730    0.27601398057532   -0.20686237429159
H           2.85520336641273   -1.17668657173094   -0.10900937928201
O          -2.14539586782145    2.72670666272888    0.55284216817454
H          -1.66382973742385    2.06831130520933    1.09115292472897
H          -1.73713503538481    3.57551136892017    0.73389470327994
O          -2.01146249494799    1.20628265253999   -1.63321980318729
H          -0.62182754673822    0.72294350888417   -1.19233662617228
H          -2.51001114394981    0.43841136904080   -1.32605925693199
H          -2.19108157347238    1.91154892504105   -0.97202486103768
