    19
        -40.92135332
S          -1.25177970250150    0.29188834798542    0.88644063373309
O          -1.94499890513942   -0.26840368602771   -0.27412624029125
O          -0.69606136870761   -0.73847906012079    1.73605738109884
O          -0.27782698381616    1.29685553957883    0.49029943645594
O          -2.34406744611213    1.05473939133295    1.73220970821275
H          -2.88120124890965    0.34582796321724    2.07229406367773
O           1.15233653736829   -1.81162887769331    0.22031388751578
H           1.79992938716969   -1.08271985380423    0.37369085887225
H           0.45217254968917   -1.63133709795038    0.89125906375404
O           2.24521015739670    0.48247468127506    0.94645142110747
H           1.37587171935627    0.91164965884731    0.82444985961453
H           2.43594002924008    0.52509973711085    1.88507545525622
O           0.42535770438641    1.27992362402418   -2.05984069522597
H           0.21672519661150    1.43979593484236   -1.11134531425198
H          -0.18032937205578    1.82255957498264   -2.56814444325099
O          -0.17721772781629   -1.18290001278149   -1.77016193787343
H           0.48585304641316   -1.54737190363588   -0.98152981843620
H          -1.02141446317201   -0.90986936558507   -1.22975733235585
H           0.18550090059399   -0.27810458560402   -2.06363598760253
