    19
        -40.91790600
S          -0.62733206495387   -0.03461663452712    0.81153744029632
O           0.37203273608764   -0.24285519978244    1.81965333552563
O          -0.67008657035778    1.42672131437543    0.40508856837861
O          -0.49874778482009   -0.88032016019552   -0.34749448894486
O          -2.04384841508062   -0.24641200271831    1.43123118827541
H          -2.04143996716485   -1.17813848083647    1.73522798585240
O          -1.03796009849895   -2.64689260633518    1.78060594737642
H          -0.26733435699340   -2.27891649578619    2.22815052273990
H          -0.80132786596526   -2.70660002066704    0.84845373063908
O           1.37676610473437    0.08580938940944   -2.08995255320280
H           1.94492915588671    0.45051088092885   -1.38637672415674
H           0.84189437127040   -0.58619327426816   -1.64103112033861
O           2.26966621014246    1.01672054486510    0.31416253155764
H           1.76362636600624    0.51563007341749    0.97240112145388
H           2.10051831002528    1.94351112197527    0.49650179206858
O          -0.70375597938806    1.61954320725968   -2.08126672541437
H          -1.40102453803859    1.04802804297761   -2.41305065730357
H          -0.73638879684508    1.56911951921474   -0.64164910933409
H           0.15981317396708    1.12535078041546   -2.24219276543331
