    19
        -40.92120596
S          -0.16956550642532   -0.74039865643131    1.15130880549385
O          -0.77469070287497   -2.04323984499578    1.11468280391348
O           1.16354655885243   -0.70402373916487    0.54918189260295
O          -0.99959211371072    0.34366052258046    0.65144168354179
O           0.06040164392496   -0.38483225390918    2.69123147500377
H           0.20228707613993   -1.22995422011521    3.10708004844694
O          -0.79920241903169    0.55767026311264   -2.00792643553891
H          -0.75202765077744   -0.41604397769355   -2.12070396567648
H          -1.20547672492576    0.65775017983869   -1.12622380630319
O          -0.70261664057374   -2.06347368664792   -1.55237708380622
H          -1.28278998073547   -2.76359815420085   -1.85889221063215
H          -0.69292729567429   -2.12361298455360   -0.57742943728271
O           0.51175243908675    2.46811925484057    0.89885638150636
H           0.97347262443200    2.40941020185970    1.73733485436326
H          -0.19173915839480    1.77910110984300    0.92423292362784
O           1.44404191369221    1.13524297062990   -1.08087276750901
H           1.46080536855213    0.29312411629712   -0.44891271997437
H           0.54734069806233    0.95915528987612   -1.63340402112459
H           1.20697989037706    1.86594361882946   -0.41860842065772
