    19
        -40.92022159
S           0.43962826494162    0.48680023222846   -0.65216773012399
O          -0.86684438305318   -0.12935851158848   -0.65942690311695
O           0.31286240012599    2.00701383963882   -0.79769258904169
O           1.20721631181337    0.18721089342448    0.52920292667727
O           1.18973701154922    0.08573517216376   -1.92210960104358
H           0.88663228130813   -0.86152749148425   -2.17603815985987
O           0.93743146788330   -2.48837358333516    0.39566745706798
H           0.26762837355190   -2.70311728229047    1.04857089610593
H           1.18377275029184   -1.55942301730015    0.55551411406022
O          -1.95141989621359    0.97967643611539    1.53047935308142
H          -1.64561569702543    0.47099548210498    0.75511643715783
H          -2.80218848205935    1.35343764940664    1.29111904994399
O           0.20931732981051   -2.23309535483414   -2.16343017937592
H          -0.69618966514612   -1.94775921476313   -1.99625464900812
H           0.54426422650702   -2.56068948064325   -1.29804364931749
O           0.21750106204966    2.53817496200309    1.67310673594493
H          -0.63581466942766    2.07350450610864    1.82768695099423
H           0.90255187946985    1.90145705068183    1.90835923998109
H           0.29952943381376    2.39933771333173    0.15034031146506
