    19
        -40.92139825
S          -0.04211799040681   -1.13111554332254    0.43263028482361
O           1.31346657771977   -0.58570142237709    0.38422468099210
O          -0.94507918581851   -0.18634681498959    1.08280600815699
O          -0.51389239763380   -1.50226403565589   -0.89907100028227
O          -0.00911755234602   -2.44069876846797    1.27150702209118
H           0.30986497270625   -2.13011297953397    2.14352629799090
O           1.58173564872025    1.12263962900843   -1.53435833009408
H           1.55099604884815    0.51053745106890   -0.74688881849171
H           2.34460002405824    0.84998464342340   -2.04876254948504
O           0.83696446782437   -0.72157030617589    3.08004642318896
H           1.49323386107037   -0.47824223792867    2.41406747731607
H           0.03867394047039   -0.23662815798521    2.83045503747238
O          -2.00245222852168    1.61748636309227   -0.45729694042267
H          -1.65790816214960    2.45048098637036   -0.12766399633789
H          -1.72801538917511    0.92303144245096    0.19826433625126
O          -0.73564805403100    0.49505964701354   -2.33007348103449
H          -0.70845615832584   -0.44573143026727   -1.83430458292760
H          -1.34703387431571    1.04473792357638   -1.70113738319090
H           0.22018545131275    0.84445361071669   -2.15797048609546
