    19
        -40.91892664
S           0.57985442345497    0.39630499009289    1.25103992946053
O          -0.28426783398349    1.30167948135094    0.53508160519355
O          -0.07925204735335   -0.38635369231983    2.27435420435309
O           1.33161220276056   -0.46493829160591    0.31897661189438
O           1.67097041445659    1.28268095564402    1.97527025213242
H           2.04873482725468    0.70550224680141    2.63236787567752
O          -1.87157220270348   -1.70522311641375    0.93406351428499
H          -2.00337994467239   -2.54871121917022    1.37248728329249
H          -1.28551937210476   -1.17031681710053    1.52870703599210
O           1.39606198471688    1.65114339630054   -1.54908462898068
H           0.92825615123807    1.81340998814693   -0.71270219963253
H           1.99229312909359    0.92137875882069   -1.35716542809454
O          -1.07327893612142    0.76128475345085   -2.04445040817536
H          -1.31596649598649    1.15555432249615   -1.19165875245641
H          -0.18716055124755    1.14893552541971   -2.22662696684583
O          -0.41107608612175   -1.47097771011810   -1.13186131296010
H          -1.09888000078048   -1.67207554451132   -0.40079867642431
H          -0.75256917390723   -0.59157780609294   -1.62912522328048
H           0.41513953580310   -1.12770022253903   -0.57887471909796
