    19
        -40.91820716
S           0.93211726802056   -0.06523963368960    0.42379756438123
O           0.26920402289427    0.68459994318599    1.45892469375288
O           0.22916104525850   -1.41232486758256    0.25596718916306
O           1.04475743676145    0.58673383186868   -0.84893993345273
O           2.35617395285092   -0.42664332632523    0.91522989867818
H           2.29249226070984   -0.59185075684237    1.89177136001370
O          -1.33068395335515    1.86047140187116   -0.52033741033658
H          -1.26471936186624    1.70228363604860    0.42770629369287
H          -0.43437632141239    1.69335258118543   -0.84798958476494
O          -2.51430533757485   -0.06718749352349   -1.97185400382070
H          -2.97453721660190    0.34164262896103   -2.70677611380458
H          -2.20287666331978    0.66609280256562   -1.39642991359048
O           1.66229097297968   -0.44386510950559    3.41997212458562
H           0.90185471541200   -0.00102058401269    3.00106199555582
H           2.08512588955506    0.20504320474934    3.98822972414091
O          -0.24944688933538   -1.42952572891259   -2.20025942906317
H           0.01290286877839   -1.57005025885110   -0.74976077143006
H          -1.16303423440543   -1.04916471288356   -2.19909984672267
H           0.34789955464898   -0.68334757830311   -2.34121382700339
