    19
        -40.92174072
S          -0.04244977385708   -0.67868183856490    0.58419233199771
O           0.31173626181994   -1.70698289243736    1.68016812150676
O          -0.83406872459572   -1.34029693782420   -0.43143026541133
O          -0.68060877945414    0.44957756862362    1.19633772748380
O           1.31009056330991   -0.28556692941520    0.01900803645302
H           1.26762152945429    0.61537391168454   -0.58828717434250
O           1.02618071259448    1.80010666261278   -1.27490254581400
H           0.88428161575686    2.43554135572911   -0.53552788528173
H           0.12534792844858    1.62649994344903   -1.63688323886904
O           0.30660317025105    2.94654494873254    1.01393142728462
H           0.90258595883928    3.10376495435373    1.74807080145210
H          -0.15314094120144    2.10711326902140    1.20522865407779
O          -1.49217826611920    1.01615636176819   -1.58887014122385
H          -1.39674269353496    0.08271795675158   -1.33727113527036
H          -1.96640674099100    1.43536476952382   -0.86604792391700
O           0.34612271294938   -3.67325900866348   -0.01431420999143
H           0.49112259575205   -2.55857383647626    1.20364809963800
H          -0.27364707923691   -4.39221707874418    0.13284931596647
H          -0.13245004018102   -2.98318318012241   -0.50989998573849
