    19
        -40.91912303
S           0.70327604498611   -0.80696554755519    0.80189933762690
O           0.14767085490248   -1.12911284379785   -0.63549576773943
O          -0.43390403206934   -0.46321920681445    1.60069146438221
O           1.50925853965738   -1.90452357761095    1.23195223327487
O           1.59514911265516    0.40972246194161    0.58530350648455
H           1.04321357404062    1.25496669608825    0.32466776346244
O          -1.53268130628206    0.96441474058780   -1.58320667565799
H          -2.14642166880938    1.08550407902725   -0.84474228256837
H          -1.12419213143162    0.09943249797131   -1.45647456072288
O           0.14967508372081    2.35431722254328   -0.07677116572144
H          -0.53584718983824    2.43714756278986    0.60322405614426
H          -0.34199687482459    2.00369507479231   -0.85792207911420
O          -2.19588061818277    1.45800172676306    1.11744838497235
H          -2.85622684394806    1.51645158666167    1.80922147023152
H          -1.61319399954223    0.70787279444296    1.35628946583201
O           2.25210969001476   -2.50296859084858   -1.21923964194477
H           2.33411665281481   -2.43057656045711   -0.24871334729640
H           2.15865744844036   -3.43713222834733   -1.42236065634151
H           0.88721764609347   -1.61702786691880   -1.08577153619007
