    19
        -40.91612662
S           1.64949483550571   -0.49843197380941    0.20568371305861
O           1.61412115677910   -1.50772999887512   -0.83630700062624
O           1.78429148354435    0.85338206059187   -0.25132194997934
O           0.49107888290949   -0.66385993754504    1.11645935664181
O           2.91214488819896   -0.82800057987156    1.10057373238676
H           2.90351311579868   -1.77886351867062    1.15241765123543
O          -2.07131178392924    1.79547467019943    0.05437196677893
H          -1.22187846769720    2.02816743154292    0.53417710337155
H          -2.79188198349063    2.09176543996642    0.61350315592782
O          -0.49046234806400   -1.23552874629292   -2.30446798499371
H           0.39823402958160   -1.30634936604186   -1.86261047547726
H          -0.64555413646326   -2.08040728371439   -2.73233403934355
O           0.13529483590394    2.03972734780970    1.40990880170897
H           0.13083301333278    1.21462115869837    1.91072588039206
H           0.82937264958872    1.87799211849651    0.73706543027003
O          -1.64745351089094   -0.68544433362587   -0.12522990689021
H          -0.76113140659607   -0.73628343941997    0.46196935086323
H          -1.90716499911339    0.32243690544144   -0.10876156755450
H          -1.31154024493893   -0.90266798484306   -1.07582320781095
