    19
        -40.91247213
S           1.48828684159009   -0.84175422273209   -0.23928115813075
O           1.54135535630446   -1.64203438039570   -1.42134576552747
O           1.39318431363142    0.62976336007802   -0.63392148795719
O           0.52919526976006   -1.16365958476667    0.76279469601387
O           2.91712915573770   -0.92716008268089    0.44559095603888
H           3.54363737599244   -1.12552482910616   -0.24704772230925
O          -2.81320756911687    0.05437767268595   -0.39010998829095
H          -2.10838316636946   -0.11117088774113   -1.04429403824517
H          -3.38941562219289   -0.71103959985904   -0.41986944477879
O          -1.40536997662630    0.38809445117840    1.87777816934436
H          -0.84500954130151   -0.38532385532888    1.70995591868712
H          -2.04471202452830    0.39122212815109    1.13367395006103
O          -0.77277841327593   -0.42090117719480   -2.15198944000349
H          -0.03772424145049   -1.03723934211327   -2.02049129637249
H          -0.37380503026636    0.42324143610728   -2.37653499156954
O           0.52932601956625    1.95101900246606    1.28268614590636
H           1.13389000958395    1.85776143330545    2.02268034855104
H           1.02875758088885    1.22954310558630    0.16640693208735
H          -0.31435634790379    1.44078538226477    1.54331821643964
