    19
        -40.91790572
S           0.16229887444344    0.79267857525338   -0.63114700188111
O           1.18082140341120    1.01723359313883    0.47089604475210
O          -0.02206122824001   -0.61536010629659   -0.87308216550465
O          -1.04438528877852    1.51586820660523   -0.34986437111424
O           0.87118843250878    1.42439781993496   -1.86966334854502
H           0.22494467654228    1.32377234870931   -2.59958542866981
O          -1.38271287923402    0.66474830491543   -2.98263423112363
H          -1.89166360253644    1.13594245608385   -2.31292375863596
H          -1.27119088632684   -0.23255840246776   -2.64978284218914
O          -0.24050321423928   -2.01560714600144    1.46728907392213
H          -0.69284592473193   -1.29251652876672    1.93971992110206
H          -0.39097296654936   -1.81974416568222    0.53021945019328
O          -1.19836129725618    0.44459986883142    2.15672761308257
H          -1.34102268005906    0.89657925366869    1.31070897106378
H          -0.60649259159073    1.00531707422865    2.66265117325471
O           2.17988448537605   -1.16074627967922    1.16262664683313
H           2.47491508046042   -1.61497330679244    0.36918731625677
H           1.67559598212025    0.13107540303882    0.77126550228189
H           1.31256362460790   -1.60070697876180    1.42739144493067
