    19
        -40.92136410
S          -0.80640394627803    0.15508894200179    1.11727322826876
O          -0.24880669952069    0.28643416968466    2.44040472615465
O          -0.41847585512734    1.20370653954922    0.20098003741492
O          -0.55132815734291   -1.17305926657609    0.53224062880796
O          -2.38487798846790    0.24310062098505    1.26554980278084
H          -2.55621631715285   -0.09182638283298    2.14121489708123
O           0.64726611424597    0.54066610207082   -2.09866894450281
H           0.26453935969360    1.06321751342722   -1.35707038152328
H          -0.11796598055007   -0.00048925848946   -2.39423948982741
O          -1.63011518637816   -0.82862028517088   -1.90157020249535
H          -1.34404015432530   -1.09632367251549   -1.00785300075043
H          -2.41632526262057   -0.29368062623386   -1.77919348603302
O           2.13198592286664    0.72528932872087    1.39930659536722
H           1.33813135502931    0.55023308996426    1.95394260169803
H           2.01395883353460    1.61862054455509    1.06443684810400
O           1.74075047241342   -0.96998530849217   -0.46766847508577
H           1.39541590206730   -0.34220334639154   -1.29573795799585
H           2.09681971138401   -0.32696437477279    0.24513383466663
H           0.84568786649831   -1.26320431933236   -0.05848126213700
