    19
        -40.90733250
S           0.77761739320841    0.56325206983379   -1.61841287329541
O           0.13219451945785    1.44681605304045   -0.70211513372186
O           2.02933782335783   -0.01112526758121   -1.24566279134876
O          -0.19190830616047   -0.53591150589623   -2.06134073008805
O           1.01597437943569    1.37197515512015   -2.95511628485573
H           1.71553400475613    0.92542037390396   -3.42768395207759
O           0.92351958897115   -1.47931369986415    0.79024591341839
H           1.47051189386775   -1.09538260959136    0.09097914638521
H           1.31209453272745   -1.19700565824798    1.63388855352579
O          -1.15818973452656    0.10762444547226    1.27232613021766
H          -0.55786578430116   -0.65494863371019    1.10179034675306
H          -0.69537678730427    0.85629846030406    0.86488893988163
O           0.85184526080191   -0.25660142602674    3.31437120177630
H           0.59860713077481   -0.79927654295167    4.06290892614214
H           0.03093769478076    0.07183122296854    2.92042865790701
O          -2.42482420151988    0.05826537520265   -1.04113903284103
H          -2.15578470920821   -0.01911576815601   -0.08800142700105
H          -2.53225380934788    0.99880998090162   -1.20638656399023
H          -1.14197086036234   -0.35161200523000   -1.70596903661289
