    19
        -40.92161569
S           0.04155251250243    0.14981977876693   -1.05526381514476
O           0.84369113481746    1.33785617884781   -0.87613541223694
O           0.69789281658370   -1.00394207256131   -0.29739713321115
O          -1.33506669123067    0.28842898064371   -0.68737697699062
O           0.13372875279256   -0.31497084451664   -2.52353512809325
H           1.10584657879691   -0.32869890659465   -2.71306648365308
O           2.70486035643472   -0.05797555550242   -2.24129844006630
H           2.95583467487644   -0.73701872306669   -1.60864599803954
H           2.41215924431667    0.70850830038290   -1.72245774746995
O          -2.48095420341600   -1.18795561103544    1.25899035492915
H          -3.39221411608063   -0.93780922529496    1.41931955622886
H          -2.19382102636452   -0.71094261788335    0.45883334269341
O          -0.23652836466804    1.78528351725998    1.56084910056498
H           0.28646699057052    1.83924493398919    0.74334549794424
H          -1.14735480939177    1.92424920763141    1.28920173070580
O           0.03778644040831   -0.81371876886385    2.08016848456578
H           0.46298459491039   -0.99384735088002    0.75881820896290
H          -0.00503574861771    0.17062651395681    2.12779407472500
H          -0.89182913781483   -1.11713771274402    2.02785676944425
