    19
        -40.92077987
S          -0.42964771348248    0.92350002542481   -0.23852498588086
O           0.02835346890302    0.63256219692575    1.10434097857864
O          -0.02754738260575   -0.28121610176464   -1.14193340111884
O          -1.82754100133005    1.16671858742770   -0.35247393119999
O           0.38267763315405    2.06636092102426   -0.83297818079774
H           1.32296810299602    1.71121513922640   -1.04174972631286
O           2.57409457117612    0.88936323303155   -1.30773934394102
H           2.79401066998382    0.54610279041767   -0.41072881338065
H           2.23086047232824    0.14183315740770   -1.80700357880639
O          -1.98532745987890   -1.05723044362319    1.69020664072878
H          -1.20625713517907   -0.47487683826410    1.64272832200817
H          -2.71172343952618   -0.49605744335104    1.97141497938127
O           2.59045252534068   -0.10898805651950    1.15139228400261
H           2.61710182159443   -1.02309477899367    1.43997384647426
H           1.67408437998150    0.20061872399930    1.29303721198255
O          -2.20809249286738   -1.54586269107739   -0.92286939339188
H          -2.20223069407856   -1.58887933704309    0.06231638787597
H          -2.77845944171813   -0.79977625201507   -1.13861911813544
H          -0.83777687483603   -0.90229282232408   -1.16079018805605
