    19
        -40.91618778
S           0.44434348966107   -0.37771482848489   -0.62613307447244
O           0.27322606121868   -0.46195842719337   -2.14864558194103
O           1.34521257481549    0.67793097004961   -0.26862662773905
O          -0.86071795585319   -0.27410548794649   -0.01236810542593
O           1.06103236191534   -1.75002284886449   -0.32212563611441
H           1.30796339465522   -1.83526208128162    0.65870269309702
O           0.17385903857335    2.90122108793818   -1.17194451446910
H           0.83035652494626    3.39933391034346   -1.66291284699858
H           0.65922785867554    2.18500297866593   -0.71567868173656
O           1.44961750079027   -1.99813724239698    2.19030357312526
H           1.33942011327319   -2.91425467940937    2.45692433103090
H           0.66111240664592   -1.50601775397240    2.51696025689986
O          -0.86424260304205   -0.76448413505803    2.60600096658248
H          -1.72236823309965   -1.13244009056016    2.82581912895001
H          -0.92340375082797   -0.46676043673522    1.67526045666034
O          -1.59966708352354    1.23602907459710   -2.24238575354948
H          -2.00945322642790    0.89392196449375   -1.43912689519684
H          -1.06963610499834    2.01420046830810   -1.95143179443415
H          -0.49588236996077    0.17351756486830   -2.36859188392809
