    19
        -40.92025498
S          -0.24654154429037   -0.82570806654121   -0.29102241272425
O          -0.81277073919349   -0.14271745377583   -1.45867987545059
O           1.06963178784258   -0.29086600957670    0.02158052290441
O          -1.13227841846892   -0.75106981893844    0.86911297101887
O          -0.10673589381261   -2.31941191838840   -0.69962869230034
H          -0.13573886404123   -2.83032196328157    0.14115693943812
O          -0.49034355307095    1.74879107248712    1.34898312261579
H           0.42862584504508    1.62672370895499    1.60690380709610
H          -0.86237885705960    0.83772463705549    1.29537106267192
O          -0.57550058395330   -3.16165594285588    1.74354308021023
H          -0.87019753505480   -2.22889114522429    1.72583278349686
H          -1.36485960481537   -3.69712953150563    1.85331066609435
O           2.02715608838666    1.71709487740174   -1.31020831587130
H           1.81873856385863    0.90981633216053   -0.76985484756094
H           2.35726878542697    1.39801242806641   -2.15231651364271
O          -0.43749705967180    2.26438297146924   -1.13518635109560
H          -0.71064337266907    1.25312095979749   -1.38349538207301
H          -0.53524549860864    2.24736979752366   -0.10826922344403
H           0.57931046405175    2.24473508513501   -1.29713332113313
