    19
        -40.92136317
S          -1.11626361237525    0.48680445141562   -0.66342579842247
O          -1.02569276719384    1.04862816285665   -1.98829354220909
O          -0.80039006823002   -0.95218422771952   -0.64266937771903
O          -0.35019349287947    1.19564093457626    0.33697930528098
O          -2.63867050384101    0.58087402394004   -0.22155435169789
H          -3.12147799480775    0.56105975563004   -1.04297730164844
O           1.35714539939117   -0.14488816608891    1.80259849531752
H           0.68998633108642   -0.77076751076637    2.16180675717024
H           0.79642172284368    0.57801581098978    1.43819617436592
O           1.59608516662297    1.18489702562468   -1.75341123991630
H           1.67715128637773    1.92000570996700   -1.13925150706401
H           0.65015550348827    1.17820246302841   -2.02456302275120
O          -0.96439818899560   -1.43844264716308    1.99182418542475
H          -1.70041555423089   -0.92127714815488    2.32312109820794
H          -1.02052870657897   -1.39515180811561    1.01849761637435
O           1.70291913593965   -1.02768562787477   -0.48588833073093
H           1.71169805877223   -0.70588079017720    0.56144324321843
H           0.70042470157513   -1.19558396140167   -0.62978024876088
H           1.85604358268507   -0.18226643884184   -1.04265214220904
