    19
        -40.91167189
S          -0.02342401851354    1.34623109575318    0.79554867622868
O           0.05802420491223   -0.07868978720884    1.34925498887644
O           1.24170869355473    1.98892589823403    0.95167897217435
O          -0.61092212832416    1.35839321852140   -0.50788540143282
O          -1.06403993636239    2.02143141627945    1.75816048212843
H          -0.61790899961939    2.24467238997552    2.57289736435706
O           1.25520962319344   -0.46394837892015   -1.55154346283017
H           0.65064658234515   -1.23151552819639   -1.42331895833335
H           0.68763758029287    0.31458818730031   -1.50001719974514
O          -2.59740188362099   -0.40912645030336   -1.00199449741425
H          -2.95988890497772   -0.21546745439201   -1.86867438211457
H          -1.97566745750514    0.31104119240784   -0.79589717530659
O          -0.59149268989099   -2.22276539623277   -0.73389562557250
H          -1.41326928177714   -1.71162635104245   -0.87379646275608
H          -0.45670066482875   -2.23363043409992    0.21641989941461
O           2.42485009642774   -0.48888999659856    0.75714585791276
H           1.06934722444032   -0.37233079246851    1.19853931635899
H           2.19993841796648   -0.57933359893551   -0.21469416644133
H           2.72335355061437    0.42204077026959    0.87207175471878
