    19
        -40.92087777
S          -0.52170192450216    0.97406855130897   -0.46686796585893
O           0.22711998303332    1.77268051576182    0.44881355947256
O           0.21888752868889    0.45193261893508   -1.59596904453472
O          -1.18989177321134   -0.19845191702098    0.24918595385052
O          -1.73000952123960    1.78561957305346   -0.98483306566872
H          -2.16324367720957    1.17884313465166   -1.63318692409198
O          -2.20913034638638   -0.30035025140651   -2.47096168380819
H          -1.23910488117695   -0.26497282600577   -2.50353821705493
H          -2.43641991498571   -0.97227012575861   -1.82179379321042
O           1.21100541451932    0.83348537348693    2.76742474166804
H           0.99381356715686    1.31690586035215    1.94783271890227
H           0.68640588941036    1.23372915899044    3.46340508148339
O           2.08471324976771   -1.18091202057024   -0.57382277624714
H           2.46558854692493   -1.73567368094813   -1.25691042031839
H           1.51896481539920   -0.52543142551509   -1.02418756688556
O           0.51307411493824   -1.40319222284816    1.55813997355323
H           0.83998504938546   -0.68831287631638    2.16117264275582
H          -0.47968932873750   -0.77718221241735    0.86422318267350
H           1.20963320818627   -1.50051521781526    0.87187358331948
