    19
        -40.92135399
S          -1.35771543658257   -0.59558830202012    0.48891541202849
O          -0.85094414263292   -0.14198215829478    1.78479140238757
O          -1.92997362861441    0.48822280793302   -0.27915658660530
O          -0.35141733246598   -1.34822356916807   -0.24330431830737
O          -2.52146199256930   -1.61495049520993    0.80005337919827
H          -3.18949106165569   -1.06088018051375    1.19178327508687
O           0.14478530033991    2.00451746290559   -0.78809532114276
H          -0.75770510994060    1.64668412620084   -0.61347290022586
H           0.47597020472420    1.42529767354389   -1.51553641341281
O           0.47795078436884   -0.03232659567851   -2.43849898340531
H           0.18633138980464   -0.63255692393240   -1.72473705034965
H          -0.19875895943147   -0.07361065180237   -3.11643478514226
O           2.14296586439742   -1.05854198286179    0.58946647568199
H           2.33214402163845   -1.69595033136904    1.28053051620869
H           1.26785771675058   -1.30479732239293    0.21244903845196
O           1.19150474175115    1.19924120377064    1.30467850255464
H           0.33571270261137    0.72614840460595    1.65512389858731
H           1.77148212548390    0.40911414083681    1.03042193205710
H           0.83076281201856    1.66018269344570    0.38102252634849
