    19
        -40.92071435
S          -0.68325858811087    0.62360628783726   -1.15769143685864
O          -1.17404846331655    0.64977724258731    0.23461563970947
O          -0.20837471949011    1.92132509088177   -1.57942338888554
O           0.27532163593779   -0.44206761200082   -1.33730499618666
O          -1.94405098669461    0.28631653869317   -2.04821846273595
H          -2.33072469647611    1.13827502699013   -2.22953090120413
O          -1.63969479300085   -1.78136857671844    1.26834480501727
H          -1.62493888170774   -0.90552449951678    0.83377685625288
H          -2.20754838007027   -1.69728353283155    2.03569476679563
O           0.97422705111941   -1.86410217216820    0.75908897650255
H           0.81499127234627   -1.56818894818665   -0.16680064332058
H           0.08714238436575   -2.14814309720786    1.06534356070732
O           2.14129245922037    1.54470883842866   -0.48848918435145
H           2.47371804723762    0.83188457251959   -1.04196198337010
H           1.32970247479536    1.86709968552577   -0.94725582488754
O           0.98682649430280    0.49269596723354    1.51527086520866
H           1.09546161578830   -0.58139100042638    1.31180701107644
H           1.58897088494235    0.96780029759462    0.82778761790825
H           0.04498518181600    0.66457988760039    1.14494669071612
