    19
        -40.91721626
S          -1.12094971206287   -0.29173769020911    1.43041152108095
O          -0.11524108833527   -1.26087051392437    0.96461469539142
O          -1.91018149089295   -0.73189778451654    2.52980180383445
O          -0.51537124947930    1.02710692876832    1.53307195337127
O          -2.14294276702510   -0.17224015552129    0.17923895758439
H          -2.88858293271723   -0.64781681608884    0.52871082810067
O          -0.58040509268741    1.87914666089867   -0.88643538020806
H          -1.35704899239057    1.42100216991158   -1.22211671176421
H          -0.58245669585339    1.68520485658632    0.09221084822271
O           0.29095328434167   -1.62759187919647   -1.55368626839103
H           0.77975403130901   -2.44863507388634   -1.63648385377883
H           0.01907256663742   -1.56194949912334   -0.59774418851962
O           1.49733767686476    0.59969883622583   -1.44859850498756
H           1.08197893537079   -0.31980188775432   -1.64876418132077
H           0.66077835306814    1.22946238437339   -1.32374669465520
O           2.02367834264858    0.21912723476235    0.97684654974555
H           1.31713195218301   -0.46709343182139    1.08285425966098
H           1.86821468547124    0.49565171776958   -0.46762936261454
H           1.67428019355531    0.97323395274769    1.46744372925932
