    19
        -40.91597532
S          -0.10404662203695   -0.13785703965325    1.82932381278923
O          -0.20217596040349    1.23961415900254    1.43280131173050
O          -1.36817801393999   -0.85286203800880    1.83349478312986
O           0.90469050126828   -0.87547252911156    1.04408181100136
O           0.43481518748325   -0.16117158064914    3.31462754983633
H           0.38533582219936   -1.08518672796761    3.53906366028163
O           1.14494489033379    0.57271162463480   -2.45435275450163
H           2.07212381382045    0.42108062395615   -2.64832284271281
H           1.12610706623373    1.28065028297575   -1.75006836345404
O           1.14672279363180    2.32341362174190   -0.52436245352305
H           0.66043099916479    3.13782570809025   -0.66634690938091
H           0.71756259198544    1.89830817120140    0.25614057565406
O          -2.26626513592540   -0.89432271298313   -0.58218026080460
H          -2.93125025208605   -1.58471493252216   -0.62730799090764
H          -2.03087716018262   -0.80017282721599    0.38070148413174
O           0.13476650067706   -1.39933649473494   -1.22932329092138
H          -0.86969544988400   -1.22612854543911   -1.11400905589594
H           0.52184173976383   -0.62224144489345   -1.79601809203943
H           0.52314667887238   -1.23413732526369   -0.23794296933937
