    19
        -40.92219779
S           1.09063155216748   -0.65376138193388    0.78950621337816
O           0.33998286845679    0.54985173703246    1.11311233503899
O           1.09830874294452   -1.63315569343788    1.81488730074325
O           0.54352249380929   -1.22031593365327   -0.53894131882868
O           2.51639374355498   -0.25552048445447    0.38507805447595
H           2.39825415247323    0.30413706898426   -0.43718915218499
O          -1.73977960021058   -0.91226692694824    2.01169445893788
H          -1.29145151679156   -1.69309107278538    2.34823140503951
H          -1.05603745839123   -0.22558517597211    1.97840675379758
O           1.81411023153554    0.98390806129970   -1.78308185872556
H           0.91888393350359    1.34567089592811   -1.61967010040401
H           1.69133666216831    0.23136381260471   -2.36805664945605
O          -0.68421187374606    1.75178749680179   -0.94902876692806
H          -0.85693803881611    2.68397992503189   -0.80429594416599
H          -0.33854375621714    1.39449438903435   -0.09715735853533
O          -1.93180592052128   -0.79687900004695   -0.64933641254254
H          -2.12475125538440   -0.86586240951792    0.31335440414663
H          -1.90222772414189    0.14478458418539   -0.87296075431581
H          -0.48567723645843   -1.13353989213515   -0.63455259950615
