    19
        -40.91836437
S           0.71563699683057    0.04363039414148    0.93523545252617
O           0.58618668592311    1.46059874042801    0.89251794236154
O          -0.52701937760521   -0.69630163067162    0.92224061455515
O           1.59136276287465   -0.48601340968680   -0.21809201002628
O           1.53987095017619   -0.36792831812238    2.17075337435484
H           1.49529055248774   -1.35741515941368    2.18476649748544
O          -1.81028384470800    0.32996427899237   -1.26795435346889
H          -1.91856111964893    1.26669947445118   -1.00711304978645
H          -1.57419824680279   -0.13434497306159   -0.44877483602007
O           0.93919003205105   -2.83043323727831    1.59988864400756
H           1.39951307739079   -3.07367567993806    0.79254669080544
H           0.12024963701372   -2.37843080238257    1.33427480026640
O          -1.58192948453234    2.76726139487175   -0.12676148414568
H          -0.72349787288496    2.46685281827365    0.21768593411507
H          -2.08480503221380    3.07153907203990    0.63072022249186
O           0.51991453102784    0.22354793345240   -2.37674613994679
H          -0.43087783327470    0.32519257762423   -2.06063815752188
H           1.22889041747029   -0.16256412665832   -1.13205860949799
H           0.51506716834135   -0.46817934711315   -3.04249156257890
