    19
        -40.91198917
S          -1.18345131097031   -0.83526861593201   -0.96293156439085
O          -1.75774113666319   -1.92010495787607   -0.05837133738025
O          -1.74019829412812    0.44620151885824   -0.66050441519136
O           0.24434924429669   -0.92585466514417   -0.99592188059459
O          -1.71785239696346   -1.26637009218039   -2.37713817497210
H          -2.63255095024499   -0.99554917535637   -2.43221585414422
O           1.62514970977368    2.14536151688978    1.03220872759496
H           1.75400116239636    1.84569373848163    0.10758637887314
H           1.39085489912525    3.07353303843965    0.98176056845004
O           1.84164199494223    1.18955048049373   -1.48638994105971
H           2.68330266067100    0.81036866136612   -1.74738641322393
H           1.22781176051703    0.44017810371826   -1.37739593618624
O          -0.49949686488188    0.66896458020140    1.78243736897979
H           0.30948419991597    1.20451718536281    1.62313403875466
H          -1.05670959184133    0.78924136705531    1.00015601164749
O          -0.01805026539087   -1.86491799702339    1.71204466676024
H           0.78351579470094   -1.89287838102936    1.17998125910817
H          -0.16681103819372   -0.89464100627232    1.92926326790556
H          -1.08724958699763   -2.01802528959048    0.74968323928424
