    19
        -40.91749345
S           0.15344225306959    1.15716922462072   -0.58161250812785
O           0.50642571454539    2.21969888639320   -1.46948040129736
O           0.62428330487222    1.23043231626898    0.77190143421924
O          -1.36103581177772    0.95824670889163   -0.59220881982176
O           0.71824450414370   -0.18010059959813   -1.17509000477068
H           0.60925521774369   -0.10236171654822   -2.15723367812591
O           1.51892674009775   -1.25440179585185    1.34980777120926
H           1.69863993450228   -1.55534679355663    0.45557721759028
H           1.32457606491400   -0.30385084632557    1.26050700465799
O           0.46231064829234    0.67247222306638   -3.61340554299964
H           1.24967807412426    0.76768466365377   -4.15527842693731
H           0.37185757546473    1.49792795757272   -3.10119113074524
O          -0.91474401965684   -2.08705241137549    2.06919603438939
H          -0.89021612088146   -2.48389090007949    2.94146123711524
H           0.01931952376571   -1.88990485935778    1.82432595729312
O          -1.80222426115909    0.39029244847530    1.80898645170773
H          -1.67362531112639    0.69627853531146    0.36181035172430
H          -1.61497049770584   -0.57844982355856    1.90771921851515
H          -1.00014353378989    0.84515678143894    2.09420784390752
