    19
        -40.91370560
S           0.42218539793003    0.62515312761499   -0.75865479435976
O           1.32228916913114    0.27279747925997    0.29952509778565
O          -0.29289706016856   -0.66711397151584   -1.24868354545083
O          -0.52570249434505    1.64707725274288   -0.45664470416030
O           1.20943700555847    1.03419928883132   -2.02332921548750
H           1.70750659103124    0.22906357372735   -2.30113904147433
O          -0.23737181333983   -0.25720088623581    2.45127401938948
H          -0.68270086953226    0.60860712829461    2.55140721323430
H           0.51772832338091   -0.08565887681700    1.86215963910057
O          -1.26284349107013    2.21542794990796    2.09717098721702
H          -1.14108492249686    2.09425763454435    1.13878907329328
H          -0.77540894048773    3.00727504353032    2.33126144148899
O           1.92173158053195   -1.39250616965433   -2.67620792261057
H           1.76882573755232   -1.59528514054838   -3.60283303567176
H           1.10677484045041   -1.59955679193469   -2.19700680619069
O          -1.59222962890822   -1.55271051193479    0.69778672161521
H          -0.89051709703657   -1.03496514870256   -0.47808905902288
H          -1.42063879388748   -2.48608374777813    0.84348700827980
H          -1.15508353697757   -1.06277722284160    1.46972689382837
