    19
        -40.92071383
S          -0.66364984200788    1.25153857554218    0.43711347269810
O          -2.07283699826115    1.38177072119475    0.14620115270940
O          -0.39248185242884    0.08589213680861    1.30214493631555
O           0.18013955179102    1.22049201692785   -0.73491534166480
O          -0.25218031883046    2.51798439958560    1.28732734724861
H          -1.03734255071731    2.72360581552640    1.78683114640020
O          -1.94830170174834   -0.34587910987488   -1.81604547992628
H          -2.19111398919575    0.31122382145952   -1.12146595306370
H          -1.39524832295002    0.13924072964945   -2.43552978598448
O           1.75958807773459   -0.85057750886968   -1.08672499051097
H           1.35974860359409    0.04783930692439   -1.14148017494962
H           2.23654707714484   -0.83825550306792   -0.23021560086871
O           2.20986365887218   -0.52728885083580    1.51958255103909
H           1.28947373854057   -0.20000722338602    1.56596117360999
H           2.34151413035849   -1.08544840239346    2.28737066229293
O          -0.42224804820877   -1.78386972557048   -0.38209709389840
H           0.57302288600112   -1.52798817642716   -0.76923560516730
H          -0.48164994266693   -1.15556766137671    0.42760350881519
H          -1.09284416704646   -1.36470536177207   -1.04242591514393
