    19
        -40.91247209
S          -0.68305255398771    1.58649923308644   -0.05196217217998
O           0.26345604335239    2.64711205949376    0.08779187373070
O          -0.57672849875363    0.71739217182639   -1.17493473145927
O          -0.74129288695221    0.79164124127824    1.24992209115197
O          -2.12201637296843    2.25223526928568   -0.11840833975805
H          -2.05901516803453    3.08934765332500    0.33646658596342
O          -0.32899600173918   -1.98982996480987   -1.26009003789611
H          -0.41654480264123   -1.07528271881267   -1.57031021110916
H           0.61035085439182   -2.06635224464089   -0.98788873940778
O           2.23893379272913   -1.66707015532763   -0.52548323088954
H           2.20882022442595   -0.81547270120533   -0.04992430672806
H           2.87581481274854   -1.55470809371184   -1.23293683314437
O           2.06506302681804    0.73394812936033    0.77625259114985
H           1.70637236988461    0.56870025114845    1.65159084392102
H           1.61734162012884    1.52789924123529    0.44958914870913
O          -1.72380958609295   -1.44671170209311    0.81393084279071
H          -1.16109716208913   -1.79004480613520    0.03600049338631
H          -1.16131227845311   -0.17509336587155    1.10252172841369
H          -2.61228743276585   -1.33420948741874    0.46787240329396
