    19
        -40.90446714
S           0.27973884307652   -2.16865627073470    1.07917596169626
O           0.52567499970422   -3.35656580647020    1.80927301834711
O          -1.22231154727330   -1.89640521784203    0.97955772590694
O           0.97285476211212   -0.96546584140158    1.43578889059954
O           0.68720452405706   -2.44707152036774   -0.43838634862427
H           0.40622172418016   -3.33765497663272   -0.63586823819110
O          -0.27447484165605    1.08497020865082   -1.62276897339253
H           0.65606771091942    0.81342343138909   -1.47093880252554
H          -0.30119012802581    2.04738904364014   -1.52408212480267
O          -1.06259985378813    3.38156341911670   -0.22042223956740
H          -1.34738419330529    2.70324671858267    0.40427106134997
H          -1.81378407846869    3.95777239430897   -0.36839905952485
O           2.09317177314044    0.08225328999539   -0.81854596156457
H           1.82580315292481   -0.22964864655511    0.06302569392906
H           2.28182721529153   -0.71036379414723   -1.32499280564944
O          -1.15011487627856    0.59530979718533    0.76175927990559
H          -0.91206603788400    0.72873616908232   -0.21125377684097
H          -1.34036783859216   -0.87274431995945    0.87204405761773
H          -0.30427130006729    0.58991192238581    1.23076264176161
