    19
        -40.91966016
S          -0.87377209188951    0.77114119944354   -1.25486191432584
O           0.48148885834734    1.17928670289050   -1.59099470597857
O          -1.00566604809208   -0.64906231939868   -1.04375777032989
O          -1.38057971431413    1.54097298366804   -0.10829600507573
O          -1.78884157027860    1.15828286576177   -2.47578910945177
H          -1.62697551183778    2.09120322615652   -2.57725657761619
O           1.92928841297285    0.63416621689807    0.45037446733258
H           2.60487816411507    1.30638448451959    0.55764658500276
H           1.44278297085039    0.85656394830871   -0.39604245866079
O          -0.91678861548782   -1.79640936156633    1.42404202300362
H          -0.07086428057015   -2.15317749700262    1.05796417465613
H          -1.43629337819163   -1.61727228469216    0.62328200058160
O           1.19146637139627   -2.05129769937556   -0.14534408735949
H           1.80554726354778   -1.33154437080533    0.04036417184656
H           0.54435162744844   -1.68861039696130   -0.77235925953769
O          -0.23802431451229    0.56675994723320    1.84892567465168
H          -0.55331201235011   -0.45932881069781    1.79696321368305
H           0.69936894510540    0.59000172577130    1.47292490640118
H          -0.80805509568831    1.05193942883175    1.09221466130278
