    19
        -40.91365373
S           1.20770279366382   -1.60019893209123    0.34873005943412
O           0.78555497049367   -0.58206272808430    1.28996581125127
O           0.03786843729530   -1.97798645874752   -0.53972145933653
O           2.38539901557418   -1.28866850880994   -0.38000085057984
O           1.43926349374769   -2.92406340689972    1.15726783655485
H           0.64018850973323   -3.09071148049896    1.65354740340675
O          -2.60365478407454    0.93300212728176   -0.44486879321934
H          -2.09614248626814    1.16992215772355    0.36457945442761
H          -3.11516782023057    1.70622619313824   -0.68746017025098
O          -0.90132659973330    1.58372031621735    1.51569597831625
H          -0.26940336536737    2.19490128309543    1.12600149274791
H          -0.40906010961897    0.75963888330433    1.65431678391467
O           1.39771445705390    1.35224336753584   -0.50088298433855
H           2.23034495838856    1.11005135499494   -0.91531214936174
H           1.31229668513492    0.74699180637431    0.25567705227623
O          -0.54056177086562    0.04233641129076   -1.82166332483006
H          -1.39788216451395    0.33542133197892   -1.41607626973908
H           0.14569643540795    0.66358101332087   -1.48568211582608
H          -0.24883067579793   -1.13434472112956   -1.17411376488629
