    19
        -40.91289220
S          -1.50933387830899   -0.92925719139293   -1.41547257129151
O          -2.58108403918992   -1.28287964339784   -2.27238859345375
O          -0.30571213822986   -1.82285987147486   -1.65563624297742
O          -1.10234374479870    0.44415214820591   -1.34824898166588
O          -1.95465831718388   -1.31934533579856    0.07563777917616
H          -2.58648760477022   -2.02384101181797   -0.04398994119039
O           1.11276194946373    1.71350767412189   -0.74282964813078
H           0.23678118417702    1.32721578291147   -0.97018418682912
H           1.29629849528894    2.37151822613717   -1.41527759873575
O           0.62433625660284    1.97259253659405    1.95701499053482
H           1.43284905585787    2.23184603147504    2.40207873022633
H           0.80147893632022    2.01882624367380    1.00026308525151
O           0.15094271831803   -0.69258871292212    1.93633630993060
H           0.23103054742063    0.27166665272951    2.09237277548946
H          -0.73038748627510   -0.83611786300025    1.57613670788493
O           1.55502264733585   -0.96463070176304   -0.25467684016128
H           1.13908902734120   -0.96607646289688    0.65231768898122
H           0.53041462727405   -1.48781815014772   -1.08536794338335
H           1.65900177339484   -0.02591037114099   -0.48808550958102
