    19
        -40.92217269
S           0.29890237229103    1.15108844127848    0.70201788378888
O           1.12604961873460   -0.03642766062258    0.58053683906050
O           0.87483760243343    2.36655365436695    0.20252238769893
O          -1.05506604912430    0.90090804258889    0.19126779672561
O           0.11090907267826    1.34402473817331    2.27895792132261
H           0.08825235022350    2.28793726208942    2.40561617412071
O          -0.23839023313127   -1.89116089123302    1.81773294096410
H           0.43515032722188   -1.24670614317331    1.49999339517774
H          -0.63735433975442   -1.49618532107558    2.59540591977353
O           0.76982721309751   -1.28517285845213   -1.76715737589549
H           0.66140187056143   -0.41419525428978   -2.20926589040145
H           1.29131206346644   -1.06530369123795   -0.97517735926080
O           0.36651633844261    1.31680607365120   -2.22220493147374
H           0.69785161603651    1.79249792206401   -1.43999623530586
H          -0.55413238591664    1.57580147603657   -2.30772707392601
O          -1.34601074736092   -1.46925405058197   -0.45254044217893
H          -1.03327089971396   -1.86731979922486    0.42688038200877
H          -1.35402164678235   -0.43882898309811   -0.21955342409688
H          -0.50276414338828   -1.52506295733162   -1.10730889813136
