    19
        -40.91941561
S           1.19987768905252    0.11732817480640    1.07858153067891
O           1.71603896009112    0.59759120084989   -0.19037863703421
O           0.22529786170627    1.06119226658447    1.63877341995074
O           0.67697427920499   -1.22838815026472    1.00428714031778
O           2.40340950815002    0.08395436462803    2.09358328583759
H           2.70967070255067    0.98549673824834    2.09207137674158
O          -0.21722752032859    1.35684158700217   -1.86453637184787
H          -0.20154604661119    0.46940354876116   -2.27320948227767
H           0.61475272622539    1.36532139029671   -1.34530695581425
O          -1.83434788859029   -1.39797251749130    0.37626352540471
H          -2.32668587637000   -1.76296034512033    1.11383949187049
H          -0.87635603936272   -1.43792126007531    0.63207554181870
O           0.49199002337402   -1.22382988971372   -1.90321604593395
H           1.13973053597575   -0.82518679440506   -1.30200423631688
H           0.10006630069589   -1.95460539604838   -1.42072724117406
O          -1.72188895984682    1.13548989182770    0.10890488013187
H          -1.19209920320199    1.29988526503178   -0.80707341231805
H          -1.94822954703538    0.14064274157433    0.13941786839096
H          -0.95942749577293    1.21771718369594    0.82865433160066
