    19
        -40.92267744
S           0.98817265538372    0.27093426858412   -0.28753271469573
O           0.46822817918556    0.74736437955343   -1.56059548090378
O           0.20785168812583    0.86510388165162    0.82662649492949
O           1.00058676643334   -1.17072676638633   -0.18645992286447
O           2.44597141467480    0.78099669411046   -0.11438451338923
H           2.35421276450295    1.75292672183104   -0.22931789489948
O           1.29696278336432    3.10013287510354   -0.54167785875777
H           0.72268500556243    3.04755630685300    0.22915285386396
H           0.86477830547530    2.56255071081411   -1.22451926743157
O          -0.44875295905180   -2.48810542595660    1.53734848148679
H           0.19969420112403   -2.14295597261893    0.87516826084042
H           0.01638648413496   -2.52865136992754    2.37519040032839
O          -1.64731623670629   -0.80085560889742   -1.53712255703773
H          -1.26876865355578   -1.66992026520384   -1.69674023402270
H          -0.91432266662475   -0.16214670070409   -1.70661282560813
O          -1.85841155108050   -0.45192813744343    0.97045129450860
H          -1.96822612816052   -0.60236479429769   -0.04334958807318
H          -1.45762391195561   -1.32779295078547    1.32106323846714
H          -1.00210814083819    0.21788216398370    0.99331183334950
