    19
        -40.92315425
S          -0.18765314828739    0.70355279332604   -1.53408069376660
O           1.16883725580331    0.18992652446824   -1.74173998493675
O          -1.05142490197884   -0.35517951195569   -1.00791849139860
O          -0.23979602857607    1.89250350184466   -0.72656820269302
O          -0.72118617987970    1.06562351007143   -2.97082187200952
H          -0.34433326600605    0.37804712101281   -3.51095313344724
O           0.01426053790239   -2.22711146626453    0.54304886485002
H          -0.52431265925567   -2.08121455136649    1.32803278907106
H          -0.43707075214473   -1.72612970390303   -0.17158237192134
O           1.97472385613377   -0.61102369999157    0.47017710144869
H           1.31183849707165   -1.38961816117868    0.58368464438977
H           1.78940367311570   -0.28852085160400   -0.50577987773950
O          -1.61116666182458   -0.00371893309747    1.56495633248471
H          -2.37162126643632    0.55584836471085    1.72853101311106
H          -1.52963041086830   -0.07324113515079    0.58775641648228
O           0.76012176201685    1.24292013474926    1.61033631742682
H           1.57800472357037    0.18803191786673    1.05991472037162
H           0.49323178069612    1.73183578929318    0.79881434046695
H          -0.07222681092418    0.80746835678551    1.89419209793519
