    19
        -40.91799433
S          -0.06267865450882   -0.97494084594816   -0.27100764679481
O           0.81767990138563   -0.10370071602979   -1.00560301880519
O           0.53708973285105   -2.13305219038307    0.30826778631851
O          -0.72530476169208   -0.11042199993881    0.85490533885579
O          -1.26154393632999   -1.36729192314032   -1.12955407525508
H          -1.39492865486666   -0.60450559149239   -1.80963057909848
O          -1.28605240551124    0.70397552154900   -2.55992982378904
H          -0.33493654432949    0.79864129727660   -2.40845368526575
H          -1.72614026138894    1.31048113252022   -1.92664680243342
O           2.51342835936190   -1.40001161882791    1.97427000061855
H           3.34172701451167   -1.75395645309675    1.64477352884017
H           1.80575584108238   -1.83141035068912    1.45885199999329
O          -2.31162012440657    1.82489728358688   -0.35098786616850
H          -3.23940670291417    1.78365581824903   -0.11174598007888
H          -1.84209529358992    1.20265669378093    0.22712978933624
O           1.45457841838099    0.98921209442575    1.46821984370609
H           0.06374513575249    0.40506150318956    1.26402205638941
H           1.95539541966077    0.22773162243180    1.83948837780005
H           1.69530749656328    1.03297872255994    0.53363076580315
