    19
        -40.92135404
S           0.33605361685873    1.49177070117002    0.31390460885507
O           0.52021843026045    0.94974563674179    1.66060985839534
O           1.48489655226478    1.24829518500380   -0.53049475045116
O          -0.91506328666504    1.04124082051503   -0.27543202158504
O           0.19997908524776    3.05534493740943    0.47910637165443
H           1.07113768590759    3.31488225794932    0.76268590694307
O          -0.50521015091128   -0.61576428013568   -2.35452854710556
H          -0.76625220293431    0.04099500985933   -1.67972911259415
H          -0.20940447693055   -0.11451400859629   -3.11643329060910
O           0.40043983065275   -1.52759484086152    1.43809531484770
H           0.90611365982751   -1.59636525111669    0.47091460349197
H           0.53592050621835   -0.52631886816163    1.67875079152616
O           1.48323462148774   -1.35935447796164   -0.78066201830558
H           1.72487795117225   -0.40474855618624   -0.72159889415352
H           0.76085542080488   -1.36441139957497   -1.45327116064177
O          -2.04414237279094   -1.05601231569749    0.87612967430310
H          -0.59903808204520   -1.56500399575708    1.24953977247452
H          -2.61184404111658   -0.76733526315524    1.59309236180219
H          -1.77277274730468   -0.24485130143454    0.38932052118374
