    19
        -40.92021789
S          -0.21013655239208    0.01075853867719   -1.04089194771298
O           1.16402785956016   -0.36962453184143   -0.76427175536620
O          -1.13738371758192   -0.75386268062609   -0.11445759515935
O          -0.47037311766332    1.41439119495732   -0.98403299736366
O          -0.58787292244939   -0.51574811320291   -2.44302439696671
H          -0.16008235613463   -1.40479939390075   -2.51913005656582
O           1.02473506115484   -2.54884061219075   -2.24365654396024
H           1.33938171327311   -1.92595374678518   -1.56105903290958
H           1.70729751754418   -2.59467897667645   -2.91770811510926
O          -1.49059697022087    2.62709565925001    1.18519258599294
H          -2.38351245943338    2.88797410339440    0.95209581706364
H          -1.05527509932264    2.36536275633491    0.35163529984692
O           1.67812522524709    0.13102828134853    1.82495389743799
H           2.22432057749470   -0.58894088644994    2.14626316183243
H           1.61811527105898    0.02611468701619    0.85622927617540
O          -0.95753448378467    0.22085130931116    2.14367769671526
H           0.02286503906562    0.22822814011715    2.24213073264095
H          -1.21377924794128    1.16126423074638    1.97590634716723
H          -1.11232132744173   -0.37061995947760    0.91014762622709
