    19
        -40.92343661
S           0.86125156924913    0.02332144497816   -1.45020986346525
O           1.16298508681710    1.36016607999828   -0.98445245380231
O           1.69580130886276   -0.98455565895986   -0.79465180052381
O          -0.55323830271810   -0.29829567530617   -1.34472778680424
O           1.21504534609458   -0.03984919562100   -2.98407139871906
H           2.14626210221742    0.15842124954685   -2.99210001588465
O           0.89571279370983   -1.14958458848289    1.55130368385871
H           0.77442740939508   -0.09777795678147    1.70424051354348
H           1.34967234135961   -1.18283040382642    0.61022442756972
O           0.50521117642746    1.31109097092952    1.54651872265704
H          -0.45976894153717    1.38195711434113    1.38969143453177
H           0.89998270705214    1.49853764820555    0.66146634268555
O          -1.92415096188391    1.14304737214980    0.41324500381955
H          -2.31802773032378    1.94101678513013    0.05807157141328
H          -1.47721865903880    0.69794987125199   -0.34032837019034
O          -1.43973767574861   -1.73222830824196    0.72369625039130
H          -2.07758713599665   -1.08480557392492    1.04374704334214
H          -1.20752232514714   -1.43510586727861   -0.18074209704800
H          -0.04910014669031   -1.51047527810321    1.36907879775302
