    19
        -40.91596554
S           0.85134487980590    1.28485862319902   -0.80876301209318
O           1.51985765893208    0.30470204845787   -1.64329072082522
O          -0.47115219942386    1.63272637853685   -1.27105183533090
O           0.87281154550639    0.89489938232929    0.60746790326827
O           1.71909186161424    2.61078262915986   -0.86244026273844
H           1.54879210371863    2.93231216516700   -1.74207732330649
O           0.96839270047832   -2.18286861510935   -1.31121745772189
H           1.78617399624484   -2.65861925769451   -1.47182588670944
H           1.14456352793072   -1.23662349706325   -1.57430431466460
O          -2.08580936112444   -1.17394171184219    1.21904950251028
H          -2.51918297494839   -1.33271412924016    2.05961344182956
H          -2.10074850191733   -0.18148332592271    1.07273243644014
O          -1.80254628172809    1.39875197041154    0.97196800302827
H          -1.51633261282357    1.54310283375726    0.04300328604411
H          -0.99376996967575    1.55031307160689    1.47387812327065
O           0.40871307201874   -1.50338916295450    1.04871515524030
H          -0.62785981351395   -1.47149322112443    1.14049656066545
H           0.61703625107932   -1.91823162470280    0.12056639466445
H           0.68062412783034   -0.49308455697498    0.92747999643241
