    19
        -40.92246903
S          -0.05767838282820   -0.47447773383970   -0.95797203788576
O           0.27437757904306   -1.11963680773869    0.38495452835403
O          -1.47755528973140   -0.21575374097225   -1.01676056637203
O           0.77855599683617    0.66380009689978   -1.19210585406839
O           0.30390232585657   -1.58734997083779   -1.96581680208633
H          -0.35340424100700   -2.30315255855200   -1.77704835029973
O          -1.29548925774108    1.96926545653193    0.55821999227580
H          -1.57821076690658    1.24743411591751   -0.02915266388676
H          -0.78979366289192    2.57324790240854    0.00866885640814
O           2.40732706265121    1.74309839998242    0.65489832899549
H           1.90035011118054    1.46111876030212   -0.13015599369832
H           3.29179291584658    1.38850715853900    0.55005875017383
O          -1.69127552802225   -2.89591188801935   -0.93192913961553
H          -1.42993902756411   -3.09764651128111   -0.02914566083548
H          -2.06102236829355   -1.99803836814162   -0.91830094398533
O           0.44325348259880    0.66724335441578    2.07292891642423
H           0.35977359284293   -0.38295782794021    1.19724272831055
H           1.26741019050713    1.12281826061148    1.77846178295734
H          -0.29237473299295    1.23839190049278    1.74295412740476
