    19
        -40.91346201
S           1.73176776994777    0.90712566234589   -0.61011831900660
O           2.52837425100878   -0.27824852212708   -0.67390141155099
O           0.88705341552799    1.06767215052555   -1.86356274615781
O           0.92319733486738    1.04810946507317    0.56926924784800
O           2.68227163922258    2.15405102903861   -0.68732955567028
H           3.34443567526291    1.96280913980825   -1.34864715495332
O          -1.88267355122166    1.08039278626779    0.62063703579280
H          -0.98193522612581    1.37334298159108    0.81590468624736
H          -2.07062119276508    0.36422728748741    1.25667259626323
O           0.35779176382286   -1.58722977053871    0.50158667166084
H           1.19077173341146   -1.95525669227754    0.19159652790534
H           0.57971990275949   -0.67617645356569    0.76544780806733
O          -2.01777616382309   -1.30382851069403    1.97563096544765
H          -2.68522838588112   -1.93969782175486    1.71238251120323
H          -1.17341452803199   -1.61766472361374    1.62177493467506
O          -1.10932507220784   -0.31801170880876   -1.42670169556248
H          -0.70770775911040   -1.02770470913373   -0.88970133325440
H          -1.58010636084214    0.26553090843614   -0.75830710100848
H          -0.01659523578436    0.48055748196852   -1.77263366802244
