    19
        -40.92079095
S           0.95338599713375   -0.81010926839996    0.80122351512665
O           2.29822963609712   -0.40038375012754    0.48827873743880
O           0.22459118571911    0.19762003829641    1.57386223558850
O           0.17765404917237   -1.24825389160723   -0.35081334544782
O           1.05746149557393   -2.08349084451143    1.73532319732153
H           1.68248491030956   -1.81679890034677    2.40225922719957
O          -2.41464240764751   -1.39487554863847    0.02274662045507
H          -2.81698679092829   -1.70701044877408   -0.79029965668370
H          -1.44373551327848   -1.54207150457102   -0.06969894957695
O          -1.77562055686574    1.05539842210841    0.39522435170405
H          -2.26008438517323    0.16827994930233    0.30127020721691
H          -0.95894193933957    0.79323535940957    1.00817084414838
O           1.90297367872574    1.88338477973208   -0.78206787072625
H           2.11335969760491    1.08822338693415   -0.24603170197677
H           2.68987175681347    2.07461894338303   -1.29593697104108
O          -0.40452696624316    0.98507158583090   -1.68516507383504
H           0.40741803500733    1.50846184388071   -1.48743795114438
H          -0.14545519441371    0.06459428040566   -1.47683369723196
H          -1.28743665829584    1.18410557765279   -0.54407371855254
