    19
        -40.90743825
S           1.73177117943319   -1.20714508872622    0.04792474479235
O           1.49165805429680    0.10166815457625    0.59361987526264
O           0.86233525212158   -2.22485110758548    0.81432523972577
O           1.60411918244436   -1.35590683532429   -1.35726508091707
O           3.17259719674502   -1.65824281096238    0.46204794940489
H           3.31546383550601   -1.41084570780268    1.37424460294045
O           0.03479885057461    2.07014700526566   -0.80652439111513
H          -0.68201318401874    2.26725320488260   -0.18024199288804
H           0.72586859654437    1.61987572115946   -0.30244326392979
O          -0.90119234844384   -0.26436345040038   -1.69467596821907
H          -0.61872192370496    0.67659270662842   -1.61679191905970
H          -0.09313466267419   -0.74971791212647   -1.91124854760186
O          -2.28349766564430    1.96450731065890    0.75497094827816
H          -2.38683496124322    1.01925408136373    0.92068063199032
H          -3.00458785059013    2.22677325450460    0.17955312444052
O          -1.14696083794896   -0.70342895416757    0.84030684397480
H          -0.56134698714043    0.00468850097509    1.13856842404673
H          -1.20490484132191   -0.59182113336820   -0.15997142201605
H          -0.05541686482616   -1.78443692937515    0.90292018078590
