    19
        -40.92078207
S           0.32641031639993   -1.06974783398451    0.97412644768417
O           1.48582854973275   -0.31814629299882    0.48778809753400
O          -0.88347321797694   -0.26100560171053    0.92337301550816
O           0.20256966514530   -2.35965861635155    0.34602906697203
O           0.58815558264765   -1.31656865302368    2.51529975939080
H           1.32430852694564   -1.92049656643658    2.52367887213113
O          -0.53482622875076    2.27313479056838    1.50440025976064
H          -0.71447086167982    1.30367987134256    1.48367160858418
H          -1.38910785961752    2.71058402290701    1.50161573801352
O           0.08905752697319   -1.69379193828844   -2.20925569694261
H          -0.30058464938106   -2.42776570123629   -2.68793513771833
H           0.20839350095265   -2.00304385547436   -1.28521760398669
O           0.86736385006235    1.82117122055670   -0.59067570616788
H           0.40097527031650    2.23707344515488    0.20713824789568
H           1.27613015321387    0.94367244351523   -0.16984458696142
O          -1.05770323123850    0.59799389145590   -1.59339823346855
H          -1.29493276698472    0.25427031616578   -0.70836393404530
H           0.07247423310556    1.41205244389564   -1.17263184349826
H          -0.66656837436603   -0.18340738539630   -2.04979836105719
