    19
        -40.91792409
S           0.81557361395971    1.45159461870912    0.29288986018475
O           0.49755538083573    1.42530572271331   -1.12498009334706
O          -0.34155220718159    1.78341807484659    1.10598399566132
O           1.47093907642426    0.22764215957926    0.72963936904929
O           1.86988610353852    2.61263079447421    0.51303059474003
H           1.34192278918167    3.39479654490688    0.38661795568452
O          -1.71470830046109    0.25488382360090   -1.65694910470282
H          -0.89836548909829    0.79607650979843   -1.44592439374877
H          -1.66458225223584    0.06483754396647   -2.59660444443080
O          -1.25849148392111   -1.70948049003245   -0.16245731925266
H          -0.29064337897869   -1.89659437211055   -0.45570695871137
H          -1.56295065431768   -0.92976605671860   -0.79186706931979
O           1.19347386729649   -1.82742480559747   -0.79172867201842
H           1.79852131937361   -2.49049368344276   -0.45394635394526
H           1.40767404913335   -0.98102390452988   -0.31082412074348
O          -0.81169554887957   -0.56248040906480    2.02110721360850
H           0.12289944442132   -0.74084940018363    2.18098132369475
H          -0.80716260551904    0.39971874345000    1.76112938560262
H          -1.16829371372095   -1.27279140425036    0.79960884211980
