    19
        -40.90305684
S          -0.92486523222940    2.32389139856745   -0.35037270356666
O          -1.89545955968304    1.63630325632373    0.45458904116963
O           0.49126197524352    1.99832350097460    0.15770563544394
O          -1.02923020390730    2.15758839676994   -1.75858260503871
O          -1.01109652276369    3.85594459568447   -0.01489309678212
H          -1.12337814943911    3.93231628643690    0.93127022041126
O           0.59719650325658   -2.12820189569476    1.89896710183056
H          -0.15863619046087   -2.71853062139848    1.90013337231543
H           1.31038211814324   -2.58879249873733    1.42059736189846
O          -1.77884212996268   -0.45975816641645   -1.25267048094005
H          -1.68910594297468    0.15832666161292   -1.98770115699881
H          -2.14083960779918    0.07832378613117   -0.53053426153785
O           2.40039125692370   -2.72575706525679   -0.08426110973747
H           1.96187015857638   -1.96404828190565   -0.49261369549384
H           3.33794221170022   -2.52759435448200   -0.06888253905187
O           0.65157629199405   -0.48317020274663   -0.21997391524696
H           0.55655565498699   -0.91426987591941    0.66202510945699
H          -0.21520437187415   -0.62123749944456   -0.67805560869958
H           0.65948174028172    0.99034256947349    0.01325334056142
