    19
        -40.90758996
S          -0.97169152902536    0.70157342259805    1.76849691824082
O           0.28360962409702   -0.11143977244878    1.34628702919219
O          -0.88442225204385    2.02583024207118    1.23946877430278
O          -2.13830780646028   -0.06305923163677    1.50158194089666
O          -0.76269605807943    0.79883761926521    3.32330244060731
H          -0.21447829971757    1.56254230245576    3.49593147125260
O           1.58187776008671   -1.91791309217380   -1.77251069834599
H           1.45630645269814   -2.04050489882289   -2.71535090543445
H           0.70863309004536   -1.99223330844705   -1.36303816039943
O          -0.69935806231510    1.11048335289407   -1.36209073908568
H          -0.92362845867158    1.66602300483914   -0.60307685254207
H           0.28301803053995    1.13308093097266   -1.41516136292503
O           1.92908545586278    0.68883742024996   -1.00334649857418
H           1.91070777065896    0.62522377531233   -0.04494270816021
H           1.99409529503183   -0.23041189348800   -1.32640071095065
O          -0.87502294207716   -1.34032785248234   -0.55467949278765
H          -0.91964058813522   -0.45864359158734   -1.03388877563497
H          -0.04097038174951   -0.73621641479534    0.61135440782241
H          -1.71711709082958   -1.42168202480679   -0.09193606737290
