    19
        -40.91624658
S           0.14210742753691    0.44078917065731   -0.79216398018372
O          -1.29740145175035    0.35564507956085   -0.78457271195252
O           0.61878927349108    0.78289339230336    0.63195424245216
O           0.83278892553053   -0.71246947045480   -1.27372832427556
O           0.58797558434721    1.66585221873975   -1.61578890679442
H          -0.10569151747328    2.36501528723337   -1.48720894745291
O          -1.62283631718298    2.94850430273514   -1.18624554559460
H          -2.14411914464174    3.18687127333708   -1.95700372329227
H          -1.86435260969820    2.03381392858863   -0.94824139362210
O           0.09305347025911   -2.63871501758643    0.72987459620220
H           0.04647340128706   -2.40163076131801   -0.20325559292432
H           1.03177901737782   -2.50771775739007    0.96372436636026
O           2.54991288978538   -1.46230013421604    0.75490790906668
H           2.55798857735739   -0.65489899876378    1.27414996992739
H           2.20969079552122   -1.21372736602410   -0.11809305581095
O          -1.07193727821143   -0.58753919096148    1.86432630140578
H          -1.81757103303653   -0.41752695945117    1.27858468664464
H          -0.71251956963461   -1.47641072033422    1.59245574884988
H          -0.03413042576972    0.29355173190021    1.27632434236621
