    19
        -40.92135338
S          -0.22601304265524   -1.49443782953366   -0.38957683478946
O          -0.18779009674254   -1.66133561954723    1.06387735040704
O          -1.51263377424871   -1.01730216234168   -0.84680240035475
O           0.88647193638702   -0.68604420759174   -0.86308137901215
O          -0.01144924050125   -2.93122465537527   -1.00575937620332
H          -0.79785288274657   -3.39645205057654   -0.73779947116979
O           2.13055834791458    0.75432890771295    0.97445206030358
H           1.80476424614011    0.23523195057247    0.20440701986047
H           2.82444664866515    0.23260486352412    1.38182023713923
O           0.05898440368023    1.68593161934576   -1.82647658491508
H           0.45728069405927    0.82606170718785   -1.58825068120753
H          -0.35300496348841    1.56196882099863   -2.68334264549648
O          -1.64239727826014    1.39141505273977    0.17388583728773
H          -1.05070037618242    1.78787641058535   -0.50958864796770
H          -1.83829301418404    0.49728016858683   -0.19397622289245
O          -0.19058177766034    0.63438747141347    2.02914338713207
H          -0.24853255428799   -0.37266135021307    1.78201248295246
H           0.75809441366748    0.86676378462000    1.74278998353361
H          -0.86135169295060    1.08560710795849    1.29226590583312
