    19
        -40.91898055
S          -1.41690091963063    0.00430991743867    0.81065101020974
O          -2.49182393874941    0.61156476424984    0.07107067330235
O          -0.91468930066927   -1.22186936325081    0.16585977209875
O          -0.31177429665866    0.90289653980045    1.10358256075979
O          -1.99860879208967   -0.45738647808167    2.20876495927511
H          -2.91086202265945   -0.67853010446717    2.04106327098933
O           1.54577754553130   -0.93561432314664    1.50424976550665
H           0.97942495090402   -1.70305294103990    1.37804478102404
H           0.92700759976935   -0.17661457056772    1.53155288774405
O           2.57079015928287   -0.37089746193970   -0.82803616442785
H           2.93718182216215    0.51265635940359   -0.75313284528590
H           2.31514410253906   -0.64999022550684    0.09734657972513
O          -0.61137113269157    1.86651007734965   -1.34875886895241
H          -0.28365880652777    1.88140959848135   -0.43014361486823
H          -1.55935189776539    1.68938871166930   -1.22547044450857
O           0.27216155500072   -0.45305239457197   -1.86921631489995
H          -0.05427099034994    0.52802969403891   -1.83635307548913
H           1.26564011459313   -0.44844466612288   -1.54821002736125
H          -0.25981576209124   -0.90131315383961   -1.07286490481921
