    19
        -40.91248662
S          -1.53623293868550    0.08400876430735   -1.09271674487748
O          -0.11093717651815   -0.41389727489668   -1.35712527611046
O          -1.84069783859664   -0.10121230893018    0.30207482632533
O          -1.71208186850804    1.37148602355256   -1.65710088447743
O          -2.43835086947441   -0.93441185540013   -1.89242694889041
H          -2.67966500547420   -1.65724257602727   -1.31495458533603
O           1.92060470655873    1.18041200976434   -0.04569762798629
H           1.19950239139423    1.74193908747887    0.30243203261543
H           1.56626942940619    0.78204147295052   -0.84727366171554
O          -0.46231648373908    2.29185595593736    0.61630716863041
H          -1.00080057235260    1.58181417366584    0.98384397429929
H          -0.86978975841194    2.49833766136795   -0.23334972144945
O           0.11631879554939   -1.97385786356829    0.55692382891154
H           0.07960578006946   -1.14697341329782   -0.61624238485693
H          -0.62484717239049   -1.55751881762596    1.01877877764830
O           2.19999014143599   -0.85067749901085    1.63061764593286
H           0.94000676838509   -1.66005275838297    1.03266711227125
H           3.08158116242745   -1.21191712046561    1.52747716913745
H           2.17184050891116   -0.02413364142175    1.08576530989526
