    19
        -40.91624665
S           0.68373636965920    0.26417550378352   -0.55553367702311
O           0.74872895379688    1.29045867623325    0.45531329447485
O           0.42993360180546   -1.08815921900901    0.13724060559029
O          -0.27691610439511    0.46891723953686   -1.59192195408322
O           2.07314468870005    0.07483388676596   -1.19726774509915
H           2.74238157518620    0.23892792872187   -0.48219924334472
O          -1.88707651181639   -1.77531611273039   -1.57858176420220
H          -1.30316106399440   -1.06363269957606   -1.88217171059088
H          -1.33122318876328   -2.37606012483763   -1.07692887932958
O           3.32327043789884    0.90239772697333    0.91717340404405
H           2.41620918436873    1.22564079724997    1.07286249192075
H           3.88602188871576    1.67464937803162    0.81996770180683
O          -2.71732485339897    0.34117378773299   -0.07747007174364
H          -2.77798396538382   -0.50551483840030   -0.55964243936181
H          -2.15021151986784    0.88889083884140   -0.63202229869105
O          -1.11833382294037   -0.24350105534353    1.91085864334730
H          -0.19294487828309   -0.88261964340341    0.94390740389993
H          -0.67098295086749    0.59370183515009    2.07469112164048
H          -1.87726784040309   -0.02896390571539    1.30172511674798
