    19
        -40.92025450
S           0.32223898721468   -0.38249246002941   -0.76316781746110
O           0.02709310239475   -1.67378326688643   -0.13450455595202
O          -0.78076896459529    0.54461159378394   -0.56235411141756
O           1.57922982061568    0.18642513442687   -0.28112793464249
O           0.47306498693520   -0.67471649574371   -2.28298141647532
H           1.04110373216298    0.04686336082126   -2.63682520789005
O          -2.81602274861226   -0.13090206679663    0.89378268794886
H          -2.14033799621766    0.23190170335990    0.26187249507834
H          -3.38783605320825   -0.70110432134729    0.37625753376615
O           2.25218137624200    1.23281461615515   -2.59217189296324
H           2.20680231648723    1.06805467259157   -1.62885635331413
H           3.12262800018878    0.94676719217008   -2.87912733863427
O           0.50899035225103    0.93254305834848    1.99637496178974
H          -0.09090151723104    1.61075639556454    1.67073971378572
H           1.07104997573204    0.69724580736245    1.22158470020158
O          -0.86691440644657   -1.19646190694766    2.10504931230459
H          -0.29529687657756   -0.35267588077021    2.26698981067665
H          -1.77743168811496   -0.83339015073692    1.78818821413116
H          -0.44887240908585   -1.55245698602449    1.18027718716547
