    19
        -40.89919920
S           2.12913769076912   -2.05238504994727    2.46404000433913
O           1.70464592239177   -0.91868792581187    3.23252457409712
O           0.94624256696862   -2.77491329827175    1.84808053055776
O           3.14624976746727   -1.80949026566414    1.48512257533234
O           2.68352537439784   -3.13096525453732    3.46546808894816
H           2.09543247899718   -3.12542657853918    4.21774527430315
O           1.38621299365625    0.52230179445076    0.98434642067599
H           1.41723375100445    0.21313848764383    1.90611789854191
H           2.30085127897326    0.60782079408992    0.70368976631758
O         -10.07839676040810    8.99633185866439   -5.88836758509231
H          -9.61243002081716    8.81338438948019   -5.07012939089745
H          -9.72294310066149    8.40582313745327   -6.55541680971924
O           2.77681494684030   -2.20712643872444   -1.14683748765349
H           3.08827136546435   -2.04527635298241   -0.23577017760065
H           3.06229291984353   -3.09210308706703   -1.37994698951967
O           0.36854110110603   -1.59505628368744   -0.23043283217107
H           0.61087467700209   -2.29459738070838    0.91266475021887
H           0.55521437843590   -0.67653684131019    0.08165538787452
H           1.14222856646736   -1.83623546712339   -0.79455396194575
