    19
        -40.91609913
S           0.30690347975531    0.32198278172666    0.65478150603070
O           0.54954713053138   -0.13864665013742   -0.69840437568153
O          -0.73633045945917   -0.38122028269281    1.33352311393923
O           1.60824631579493    0.25968605799060    1.46177678591961
O           0.05285043699032    1.83759282723605    0.62608409347790
H          -0.73171906422210    2.08355131864142    0.03326772726663
O          -0.64078218692382    0.91123400212265   -2.84418534495172
H           0.05247808643226    1.16457306557078   -3.45682225897416
H          -0.20130332568215    0.40645471725890   -2.13090893674219
O          -1.79577169371352    2.46380449107510   -1.02716943334081
H          -1.52066814049282    1.91188197765118   -1.79667122064699
H          -1.71108731213420    3.38219561800449   -1.29479287150644
O           0.51685871665733   -2.72289847410457    0.11523192008221
H          -0.43121269614380   -2.87410098786725    0.14654219163495
H           0.62826118347616   -1.87189147767975   -0.34067715721107
O           1.15976637727643   -1.95906941389458    2.59664866863582
H           1.57037647992938   -0.60125587154104    2.01111214943400
H           0.25874908658566   -1.73953484135838    2.85997648388087
H           1.06483757532605   -2.45433885804142    1.75068694875362
