    19
        -40.91791094
S           0.65831300553591    0.60977760353723    0.63416661122923
O          -0.13004473596828   -0.42687618054177    1.24833933310201
O           2.07540104465541    0.47054672703644    0.73177937150981
O           0.25320846750422    0.64318929361697   -0.88114285420899
O           0.21638216539519    1.98247895421183    1.12603642588486
H          -0.77053670933719    1.89469736675757    1.40348474881804
O          -2.50176388422162    0.99549292070908   -0.98266923341572
H          -2.83560569010390    0.25355015120702   -1.49072651760688
H          -1.54712405608311    1.03964668767748   -1.14320489377811
O          -2.15693022084045    1.33117435008022    1.67433302219149
H          -1.82326757404594    0.43839504434759    1.84666307728162
H          -2.54551540638120    1.30580508788793    0.77715529609424
O           2.89767125946969   -1.77627459839946   -0.49252192762132
H           2.74534227934445   -0.99016634942438    0.06658461741536
H           3.62980240927108   -1.55740256471803   -1.07219310486341
O           0.31759648242535   -1.86753564860699   -1.09165425114443
H           1.28541925934413   -2.03451362422774   -1.00685175431297
H          -0.03399075653991   -1.96587169323903   -0.19699847094970
H           0.26564264059560   -0.34611353784234   -1.15057949560276
