    19
        -40.91245449
S           1.19006209210994   -0.54993432674173    0.43391193223007
O           0.51682268255265   -0.48727176421522    1.68917630702860
O           1.10121487307921   -1.94743189340219   -0.19587007155818
O           0.96045399536493    0.47161287910631   -0.54072198180102
O           2.73877649227606   -0.46743985170653    0.76328042265442
H           2.90253645561735   -0.90829627190484    1.59523949092805
O          -1.44601557795938   -0.92542101419773   -0.24203976485074
H          -1.60861912077780   -1.69790097033054    0.30188115214034
H          -1.71633277528769   -0.15439014225743    0.31823290791398
O          -1.82415153629879    1.02092472593298    1.50483511478076
H          -1.43641960341523    1.81800756324681    1.09858274594414
H          -1.09432548902543    0.60446939446107    1.98146181028883
O          -0.31868118270601    2.79988199920445    0.08120772707890
H          -0.65461888751672    3.15513177348650   -0.74377778225740
H           0.23132582345792    2.03235251550173   -0.15210658478188
O           0.05550756160449   -1.30164655182251   -2.41611757716661
H          -0.79134464490680   -1.19396969101544   -1.94756237576767
H           0.46207994272746   -0.42658597371661   -2.38714184365409
H           0.73172889920020   -1.84209238966124   -1.14247163910729
