    19
        -40.92246900
S           0.19595432120775    0.96009025665095    0.42993661054457
O           1.54014290976401    0.55524680465210    0.76997080367214
O          -0.06771956480108    0.62669290405749   -1.03606966542999
O          -0.83273357867968    0.41694467712767    1.26448847256104
O           0.10373672761053    2.50159077898885    0.44746535112505
H           0.87704125344774    2.79287436840388   -0.09755054702598
O           0.86390189573284   -2.05199278954435    0.95594658448497
H           1.30799493775783   -1.18683351136683    0.96488448916865
H           0.28292756230461   -2.05787352491486    1.72079938174309
O           2.26134134045258    2.44618422355655   -1.00308422238629
H           1.99649551785401    2.05383818710056   -1.83978095561982
H           2.45271549638567    1.70861907117438   -0.40112161459220
O          -2.73233296382300   -1.27992503222537    0.40433259671016
H          -2.14118282021567   -0.65684210527843    0.86807924652873
H          -3.51830456244973   -0.78463280826675    0.16817098424370
O          -0.66632240492377   -1.75858412849976   -1.18541765225376
H          -1.54777867923578   -1.75644336921216   -0.74189297286116
H          -0.33603912062140   -0.42939403858016   -1.18742928477116
H          -0.03983825778814   -2.09955997380098   -0.50172761584135
