    19
        -40.91792402
S           0.55401595426272   -1.36742920292813    0.82526937761581
O          -0.83664701064437   -1.78601897606191    0.79449714199689
O           1.09570317841981   -1.13535821418103   -0.50550512824209
O           0.76344212793662   -0.23065902313256    1.70623507484697
O           1.37676354615341   -2.58058100501869    1.42507039752633
H           0.87214465910644   -2.80667672616608    2.20025617210531
O          -1.02694257855700    1.58300451407868    1.47975710423928
H          -0.63328538557326    2.35957822133170    1.88415847701608
H          -0.37897964477957    0.83578265512336    1.64012222702883
O          -0.99534571955657    1.57505150158365   -1.02999118722806
H           0.02390811680340    1.59150552459316   -1.16520115000141
H          -1.10989645133920    1.64375725221494    0.00880787774888
O           1.52220984844658    1.31498654635440   -1.16106849351987
H           1.49166767169035    0.37861623247431   -0.82087490217464
H           2.01289342927386    1.28719534416891   -1.98465143498556
O          -1.43464561899924   -0.84528823811367   -1.51175613035051
H          -1.40623906992705   -1.25374266690976   -0.60302518591122
H          -1.28361543290326    0.58525263989054   -1.27801642087536
H          -0.60715163017997   -1.14897638928539   -1.90408380687861
