    19
        -40.90993970
S           0.59332215116186    0.16993510003339   -0.64165589863900
O          -0.53868636439044    0.22330195104726    0.43645622397109
O          -0.00394343856001   -0.08720825299007   -1.91909818389461
O           1.40999022086358    1.33106076665025   -0.53132080030701
O           1.38761228552290   -1.06745931474908   -0.16845926112332
H           0.69642215912182   -1.77700502174198    0.04773475245371
O          -0.42303396543741   -2.58423638866256    0.79680441136978
H          -1.07589952201647   -1.88378054677366    0.90172471141646
H           0.07417762831630   -2.62225584298263    1.63622372526002
O          -1.54134371085643    2.04925011396681   -2.40547051624029
H          -0.94488327449603    1.27507236443235   -2.39565679310642
H          -2.37498122511785    1.74401747674115   -2.76851167973910
O           1.57031389784463   -2.07250721946294    2.57613808898580
H           1.89026846478978   -1.46274033991938    1.90098009362008
H           2.29497038703263   -2.66602431932051    2.78347540032901
O          -0.92788300293404    2.69721665913695    0.10655362177540
H           0.01693045678420    2.86786187465721    0.00374475270005
H          -1.28466126280852    2.66146307810574   -0.80910884856681
H          -0.81869185054087    1.20403791809683    0.44944619847159
