    19
        -40.91833205
S          -1.57184699201932   -0.49064779594659   -0.51798510357918
O          -2.48288503065047   -0.05444120250441    0.51064667896379
O          -0.76641613006447    0.56631312376922   -1.09732813227613
O          -0.73512397154366   -1.61446375464856   -0.06849511563822
O          -2.45451214451905   -1.06526355075198   -1.70114455291321
H          -3.10968190018062   -1.58972341977597   -1.25085953729330
O           1.64053713087393    0.26214137654613   -2.00761118075552
H           0.67505986395835    0.40071100827714   -1.83069198969732
H           2.05103944719796    1.12846293882958   -1.96892119640939
O          -0.73054205373927    1.67346163092437    1.44098086312323
H          -1.46316914023733    1.04156451342599    1.27975228611888
H          -0.63479257820940    2.13037984884358    0.60038855270311
O           1.54441905482861    0.47827527708014    1.93639620927345
H           1.46827163313562    0.10215388587230    2.81518896005450
H           0.69332009652018    0.97294614591825    1.77384498224538
O           1.68464185603206   -1.22244934062941    0.05511186473530
H           1.71631614193954   -0.55427073140963    0.83860135356934
H           0.64066693631846   -1.48401767303965   -0.00633593828298
H           1.83469779030900   -0.68113229067519   -0.80153899398859
