    19
        -40.91742759
S          -0.92218967076638   -0.06706219790789   -0.99483057026727
O          -0.89980450810433    0.73876241845740    0.34718824143654
O           0.30756022919491   -0.81641161670765   -1.06225932379493
O          -2.12775788731696   -0.82225289450420   -1.07613603112455
O          -0.90966763389775    1.04929735422527   -2.03884882495707
H           0.05546112967166    1.37648917525556   -2.06930558835479
O           1.74046026542803    1.76169795564214    0.85490090578756
H           1.76304856090572    0.90995744019709    1.30580247654167
H           0.89830562098858    2.16561292926405    1.08123702426149
O           1.58812206720591    1.48499157588908   -1.84398333797948
H           1.75849434853394    1.72764108574415   -0.90847970400895
H           1.77179584401906    0.53962662537103   -1.89961624142901
O          -1.70579131743774   -2.18920196097424    1.24600390477023
H          -1.95035463760000   -1.81171046570793    0.38389402279220
H          -2.48852670658622   -2.63522498078038    1.57564579854510
O           0.64907382984329   -0.90368629537303    1.58193507373775
H          -0.36215447923589    0.19297976667565    0.99631555293879
H          -0.04475452489286   -1.53044500729966    1.84595494064024
H           0.87867948005669   -1.17106091735393    0.67458168044844
