    19
        -40.91990209
S           0.43396017477541    1.38157644860653   -0.43577619205726
O           1.30100974503512    0.43702564167280    0.30549673214030
O          -0.73078926781043    0.67648459319003   -0.94743900469708
O           0.11373455384456    2.54681279604492    0.33518449340827
O           1.27726217709818    1.82769373987064   -1.69203876747103
H           1.22609623533786    1.09643119409275   -2.30398521625536
O           1.57984040240446   -1.70860032908825   -1.21103278873214
H           1.59898123999708   -0.89430156818467   -0.66399774010787
H           2.37620419785666   -2.19804330159822   -0.99850896343211
O          -1.80509760351015    1.27593603641342    1.61342417192236
H          -2.42405429647607    1.15607386257839    0.88694927921702
H          -1.13313253498172    1.90994417233782    1.27211527925437
O          -0.99329694781947   -1.86527763578209   -0.40223498875629
H          -0.13945066560874   -2.15935234199254   -0.77590551122841
H          -1.10654282552167   -0.96564457332875   -0.78853370412785
O          -0.33454875384104   -0.79101829143647    1.74173200422510
H          -0.68976730526987   -1.39387127680738    0.91935366791051
H           0.46522834461155   -0.30851033596661    1.29844194881351
H          -1.01563687058761   -0.02335879029800    1.84675528979584
