    19
        -40.91483131
S           0.24610713245072   -0.29965396843816    1.43275930212228
O          -1.11484084678577   -0.62150271603089    2.03334658482721
O           0.61862320929581   -1.30733514156603    0.47404776201416
O           0.30243909624858    1.05198013081759    0.98890524296995
O           1.20324343279657   -0.45567634387864    2.66440723588170
H           1.25467756531227   -1.38520788135817    2.87890041880768
O           0.58578801086082    1.49188530514909   -1.75129138222448
H           1.34519785877959    0.90004861528458   -1.89564541439647
H           0.60803943584928    1.69323090487920   -0.80652202888065
O          -1.28200531072218   -0.34624214715072   -1.33312813691736
H          -0.69809093932582   -0.95278989987595   -0.86193537299899
H          -0.69066930139008    0.36889255211689   -1.67765066126141
O           2.30702086345753   -0.64375131362692   -1.58761740171069
H           1.79797326483674   -0.94647667955502   -0.81793571012450
H           2.25529057098793   -1.34300515506449   -2.24226460169186
O          -2.55122014914660    0.80038276316674    0.60251628159827
H          -2.24127517689721    0.37372663973073   -0.25301990277945
H          -1.83040558909672   -0.03668094325334    1.51193538696990
H          -2.11589312735696    1.65817527878282    0.64019238777204
