    19
        -40.91464810
S           0.54519039044300   -1.23263260638981   -0.63282492390846
O           1.82774287869494   -0.85055809711066   -1.35598261595086
O           0.70864158070743   -1.01773481874133    0.77549915031976
O          -0.60571660348372   -0.63901300096732   -1.23879557488279
O           0.45185785112468   -2.77463897156054   -0.89296939971635
H           1.09324320985024   -3.20825006409987   -0.33343507071077
O          -0.96567774192834    0.91873090837754    1.85023071523850
H          -0.34835594876856    0.17773208040543    1.77440292237781
H          -1.81519676998087    0.56055497329081    1.54001101966719
O          -0.03897716854581    1.96218170917832   -0.40460369180199
H          -0.42509219062574    1.78981953568051    0.49020045891005
H          -0.38427446376504    1.25701783422303   -0.96593403721495
O          -2.86139834111423   -0.32447699421052    0.29279329404357
H          -2.13420870515409   -0.53334378527957   -0.31597373433526
H          -3.53485033815493    0.11799622076066   -0.22742082160814
O           2.39849168789306    1.19507848286561   -0.08082225437325
H           2.38319789449014    0.89873612376528    0.83477583551761
H           2.18260518391589    0.02975263818302   -0.88193879096071
H           1.52277758422187    1.67304782164255   -0.22721246101251
