    19
        -40.90863221
S          -0.30922968320922    1.66344956906228   -0.71829163319968
O           0.24201673773040    1.93379281261793    0.57715042415657
O           0.56962593828760    1.07860777544253   -1.67506872910318
O          -1.60307274257833    0.85004425930701   -0.59969828063979
O          -0.85460584637228    3.01525518743313   -1.29178033979262
H          -1.28841926672665    3.45383678369246   -0.56297917462398
O           1.49674851919757   -1.37005215457027   -0.92594750271509
H           1.73991855348402   -1.14320718579115   -0.01290699288035
H           1.45032692269923   -0.52299067627381   -1.39684861708134
O          -0.97262454298538   -1.36490385640464    2.12768604331413
H          -0.06458724146650   -1.05262006202107    2.02358649730869
H          -1.24686236306406   -1.67464285470877    1.26058978073723
O           1.56907502084530   -0.17641651555659    1.53804107478168
H           2.10540721856269    0.04732527437245    2.30076023603149
H           1.11973497033359    0.64623231660208    1.25955341259681
O          -1.06965189106316   -1.61525197942023   -0.79279791619374
H          -0.06214413517623   -1.64284107940233   -0.84190020751897
H          -1.42653637335018   -0.16024814440977   -0.64430252097355
H          -1.39511981522452   -1.96536946932513   -1.62484556423574
