    19
        -40.92025495
S           0.39154104911292    0.20947393544795   -0.79448596026558
O          -0.82731361053935   -0.39494142203080   -1.32838490476676
O           0.09841293947601    1.04155182558128    0.36218932626971
O           1.40195370200662   -0.79842732150223   -0.45764430683549
O           1.02519682944580    1.08955929262367   -1.90884156682706
H           0.26896612590524    1.46964279698618   -2.41130326911669
O          -1.29597521981695    1.52146561357011   -3.05898895160856
H          -1.38492943077176    1.18620409553449   -3.95426314255166
H          -1.43670996084938    0.76077147890436   -2.46009072466117
O           1.18478446038598    0.53369683115520    2.66076416319900
H           2.08627791221798    0.86109110272565    2.65353918643568
H           0.75570605340753    0.88373327366984    1.83582916706592
O           0.75482531533727   -1.76978939631281    1.70519154956005
H           1.12936768747409   -1.47288625914363    0.74083573453058
H           0.99028561368200   -0.94564310387249    2.27617937801681
O          -1.62323441453676   -1.17623730334749    1.04806521248533
H          -0.26271283397922   -1.69483570316913    1.55182916821849
H          -1.79403551565064   -0.31669577496566    1.44543866564895
H          -1.46240669212240   -0.98773395177363    0.09414129537926
