    19
        -40.92315431
S          -0.53334916524636    1.60582810291249    0.13987700929760
O          -1.41735550811738    0.47163716391053   -0.13572655153087
O           0.02881101280211    1.48940358962875    1.48800130989105
O           0.45709299304988    1.77967004521458   -0.88819556102684
O          -1.43391441593562    2.89719785978100    0.17314520454896
H          -1.81290894135891    2.86315101613580    1.04600519652021
O          -0.88005942543353   -1.87423585151937    0.98367118360783
H          -1.28856617187526   -1.02974337110507    0.69175122467766
H          -0.77948943981465   -2.39379682869929    0.17900338179989
O           1.98331870625866   -0.35359604765574   -0.81187627853292
H           1.32521392541519   -0.89369292939828   -1.29990165885273
H           1.64724743286589    0.56478105602216   -0.92253646362406
O          -0.32398018607398   -1.25398925516737   -1.83413065351692
H          -0.79621365232913   -0.56292465239647   -1.31857394976799
H          -0.46993071354980   -1.04197537913549   -2.75721048603669
O           1.27734518719224   -0.65945837140251    1.55913749392609
H           1.71831098909613   -0.59563434164336    0.58746312751323
H           0.82711388366019    0.27717266931828    1.66737514614744
H           0.47131347931356   -1.28979448479423    1.45272134493234
