    19
        -40.91958891
S           1.01785761918109   -0.21070693179198   -0.65964200593610
O           2.04464578492460   -1.12885546826947   -0.30261779937987
O           0.81079229792153    0.75302051121345    0.54951489883489
O           1.16293390188248    0.56715907395309   -1.85011193209419
O          -0.34353348201360   -0.95138399055235   -0.74341378600621
H          -0.25865675963245   -1.73632557619951   -0.09036031475616
O           0.23796319241060   -2.71622867145523    0.95902670902560
H           0.17076017965884   -2.20549887173699    1.79246011922926
H           1.16591977518176   -2.64858414602848    0.69104193716214
O          -1.36973584373276    1.13316069187185   -2.41906574601509
H          -0.41002440978007    0.95009551058108   -2.45802316678611
H          -1.78554126404068    0.28059453470257   -2.26708531003771
O           0.20310726920347   -0.75271568114716    2.79909094483749
H           0.57854201885098   -0.13267198659639    2.15521983334936
H          -0.56752095622207   -0.32690539706196    3.17957383256189
O          -0.95490431637937    2.42014654587574   -0.17849762198314
H           0.10612116620139    1.45293422854600    0.29878623983892
H          -0.54238130505313    3.25056643425778   -0.42813033638709
H          -1.26634484862901    2.00219918979230   -1.02776648550963
