    19
        -40.92246907
S          -0.94569026697320   -0.14980898683897   -0.47877482169025
O          -1.63089610948842    0.00982998528404    0.78273717744496
O           0.02568459956647    1.01230552991358   -0.66706403641164
O          -0.27468190549287   -1.40258200159755   -0.65253395288835
O          -1.94651835778930    0.05562128284114   -1.63689297270488
H          -2.40292548728119    0.90410119633751   -1.40959724262067
O           2.39125274551971   -1.66173480675149   -0.88061441828938
H           1.41901619169600   -1.74196727433285   -0.84491647511777
H           2.63167480692253   -1.67765965518205   -1.80846000986789
O           0.48642437196404   -0.86609366465063    2.21064390168939
H           0.54444768010103   -1.78706370173773    1.94404703846676
H          -0.37956748709235   -0.55204440424003    1.89853294358706
O          -2.65562670802645    2.21411967247078   -0.37159942813637
H          -1.89124996523729    2.79561131206517   -0.41382357205025
H          -2.51120865763713    1.62341239251244    0.38547402156833
O           2.07633928240530    0.51127730427632    0.60258912552122
H           1.65176976337840    0.08482945428147    1.38636837881765
H           2.44162571006916   -0.23816182724110    0.07447992338069
H           0.97012980276579    0.86600820274723   -0.12059559163034
