    19
        -40.91779623
S          -0.59767134917564    1.07640827034461    0.16927471236498
O          -0.46815381061531   -0.16945411802262    1.05617580917235
O           0.70712202830489    1.45622175038253   -0.29643180884503
O          -1.57137402354204    0.85329322042707   -0.85830676692369
O          -1.14715419802303    2.13610414287189    1.15068399725189
H          -0.51894414045807    2.11504166587906    1.90976114357622
O          -1.30669256584627   -1.34536537731967   -2.31327574579075
H          -1.44991623824010   -0.46291177440953   -1.90938920064953
H          -2.17812744775679   -1.72553979785591   -2.43924583619561
O           0.48442889321265    1.39292298142009    3.05098525157488
H           0.43544983417338    0.56778643080128    2.54462123520645
H           0.08867750523493    1.22238343123743    3.90957855714577
O           2.26949191438943   -0.47956328092984   -1.22129716845523
H           1.83632902869452    0.32216298028541   -0.85906381433470
H           2.32019574236781   -0.34714054840226   -2.17017885030533
O           0.32433851520079   -2.00326489241863   -0.36174195062236
H          -0.28918629855627   -1.94187448708344   -1.13969614144081
H           1.18195572377788   -1.60624885555845   -0.67494933934734
H          -0.12076912338503   -1.06096174179975    0.45249590655179
