    19
        -40.91373488
S           0.00582432516259   -1.42900821328894    0.85850447001457
O           0.45295058760932   -1.50608999147999   -0.50668315349368
O           1.18133481850661   -1.22249844174610    1.80128106962563
O          -1.03721239035186   -0.49444080033482    1.12652467808280
O          -0.50433130143483   -2.85764923180674    1.26487005292210
H           0.15103887039860   -3.49988548149333    0.99694746518278
O           1.43799778469753    1.10214194205458   -0.59829323028367
H           1.26783979902946    0.16395711273536   -0.75633523432770
H           0.72633824076566    1.59076103404021   -1.06929805899656
O          -0.69668962027796    2.11008604874935   -1.87681578337610
H          -0.65302565689669    2.32623886176155   -2.80941014638460
H          -1.23691137968638    1.29265137298620   -1.80350679944303
O          -1.82753681929466   -0.30425031452682   -1.49805755299318
H          -2.02616929945467   -0.23415915804392   -0.55538107246044
H          -1.03160002579975   -0.85200983124283   -1.53011180751192
O           1.08890614667232    1.24365782708732    1.95854536173405
H           0.13562204946254    1.37233196202022    2.01637442877175
H           1.23851358488266   -0.17552574877834    1.98898190640715
H           1.32711030599917    1.37369108130737    0.99186340652443
