    19
        -40.91892668
S          -1.31250177864435    0.34830794035093   -0.46182822212404
O          -0.36299257217055   -0.25535156514893   -1.36349447456300
O          -1.10886829765619   -0.13122546423307    0.91819209628249
O          -1.36231451983043    1.79351334712855   -0.51425065435455
O          -2.74201588031551   -0.18081821584149   -0.88279340006380
H          -3.35156784703260    0.41928552733389   -0.46312726918317
O           1.06285552621966    2.47724082803178    0.11963293616155
H           0.15011002015181    2.29946841864239   -0.22421671238080
H           1.01932967982385    3.31936849186034    0.57783363299034
O          -0.30365772361160   -2.64028675521856   -0.09707736859139
H          -0.74242181121635   -2.36720301744029    0.71390551736516
H          -0.53268472611631   -1.95253284526395   -0.74454154618221
O           1.99556258292492   -1.32085532237166   -0.43450791506452
H           1.39600107375815   -2.07746403489557   -0.24427837532585
H           1.54674583876673   -0.86061560896898   -1.16145631204274
O           1.29760655404918    0.27298633815415    1.36225494411343
H           1.72186283780558   -0.41017220169069    0.66237618037292
H           1.36156630240876    1.19980928666145    0.93279135842414
H           0.26738472112035    0.06654484286655    1.30458559424780
