    19
        -40.92136321
S          -0.71197402248403   -1.15067379277077    0.30483294272132
O          -1.06866150878785   -2.11052220731436   -0.71039373288968
O           0.71193083874521   -0.96647161439775    0.47506877269481
O          -1.38825906343883    0.14417813949672    0.11327364065468
O          -1.26728117286712   -1.70540841303799    1.68507696127982
H          -2.01571977675412   -2.24067490446791    1.43687363289106
O           0.62881580453584   -0.98220047504439   -2.38065163100959
H          -0.06296391039340   -1.50127447627019   -1.91103580538950
H           1.46348245735842   -1.27708099883537   -2.00577190189316
O          -0.28811068524230    1.55953364747040    2.11097954951564
H          -0.84245139943459    1.09445883386435    1.45613345439024
H          -0.20587291928713    0.96544048311331    2.85885124248654
O           1.69557435127242    1.45699415733648    0.33503477186243
H           1.60812969424969    0.48426482091098    0.46178592452294
H           1.14469495715820    1.81679430368051    1.06496842367691
O           0.06898924727252    1.35776832262855   -1.53058036724010
H           0.35132692638394    0.51705943848757   -2.04269115949324
H          -0.67977849544240    0.99625632972649   -0.92868707990013
H           0.85812868715191    1.54155840541399   -0.79306761890183
