    19
        -40.91373424
S           0.90347581717194   -0.22849556681631   -1.38500675699399
O           2.08288655234340   -1.03222413398375   -0.85916416404653
O          -0.31582558886483   -0.98535477384535   -1.28444887730140
O           0.87919232254606    1.07917816633758   -0.81719585770931
O           1.24478922394178   -0.09070278269593   -2.91153302649297
H           1.17949249888556   -0.95542518806160   -3.31373994177150
O          -1.86456837280557    1.24838413779174   -0.79940502877898
H          -1.68111248703870    0.34173165365522   -1.08062358641038
H          -1.00056662493862    1.67947499395345   -0.81954195040115
O          -0.30285335566385   -1.14481254580237    1.50023504271287
H          -0.45106227870717   -1.30246931472696    0.55818865764135
H          -0.94736520487410   -0.45044542915275    1.76415262087853
O          -2.08267213780217    0.83377751467578    1.85215355217602
H          -2.09826234021103    1.10613831343090    0.90821781940868
H          -2.98910559684357    0.64071050757475    2.09605634522696
O           2.09278621703271   -0.17782527319688    1.46111782747375
H           1.92168393166081    0.75617970533612    1.29659199350289
H           1.20248506822164   -0.58740344511885    1.68140354728361
H           2.22660238590269   -0.73041651938187    0.15254176356816
