    19
        -40.91062387
S           0.15295568149290    0.82170212618596    1.23424891139209
O           0.07618341956988    0.14009145698235    2.50472603267808
O           1.22386700219628    0.33765820213334    0.38996394980624
O          -1.14146365016032    0.77074828527098    0.52175699737965
O           0.42972665607784    2.34301618252464    1.50452962520480
H          -0.29035008252271    2.64606350291660    2.05127725198688
O          -0.75213369023564    2.08410524493763   -1.92200389359952
H          -0.98955369013616    1.77092404951314   -1.04026768885331
H          -0.27228439192533    1.36491854850549   -2.34169085645890
O           0.29351785971575   -2.19756958387388    1.37979229435261
H           1.23034213792663   -2.19286114059176    1.16492702828776
H           0.16530365238921   -1.41525121309622    1.97202802800353
O           0.76329722668941   -0.49238876969181   -2.01559064466087
H           1.53428458523279   -0.91014203973018   -2.40296168225708
H           1.05993584904840   -0.05299509577348   -1.17650819484598
O          -1.12624098825054   -1.43132140208814   -0.57253640287640
H          -0.59865618682227   -1.90636118351002    0.18233232893676
H          -1.30015440451328   -0.47046328990895   -0.12797091468620
H          -0.45857698576388   -1.20987388075322   -1.30605216981554
