    19
        -40.92120591
S           0.39431574254899   -0.01357480915026   -1.32119987508030
O           1.66281072818118   -0.56177540488456   -1.71540128309148
O          -0.56315166469151   -1.02766309703125   -0.87877681073752
O           0.46149829718620    1.08984267631185   -0.37677649727483
O          -0.25518905476706    0.62677014402934   -2.63253760152947
H           0.09281155769645    0.10070511238339   -3.34631111602807
O           2.04776532637367   -1.54803247758542    0.73456972507797
H           1.92184383539055   -1.25408368452368   -0.18831665086802
H           2.96549694802233   -1.81803562761245    0.80818899448395
O          -2.04677255549249    1.72254937368827    0.03296801886814
H          -2.50464678991718    1.67855219747768   -0.80854223614289
H          -1.08499750456145    1.68758408056277   -0.17657215532525
O          -1.63250619113405   -0.47585836327379    1.28247333183875
H          -2.00256891292536    0.41276085616378    0.96309084497796
H          -1.23612036474239   -0.85881504910423    0.38518726789353
O           0.61128967083695    0.19816580532957    2.14118933784599
H           1.18512891542252   -0.55391669198718    1.88155051069504
H           0.72217284726545    0.82527218161228    1.40160828689717
H          -0.73918081069877   -0.23044721236901    1.81360790752846
