    19
        -40.90771824
S           1.31921527520915    0.85797442399586    1.02626490375507
O           0.80202156962701   -0.31677786025469    1.66166901823117
O           2.57843999844709    0.77330764555488    0.37636324973425
O           0.26923463223475    1.41218957881952    0.04010465589812
O           1.36531060647467    1.99475905287787    2.11297750014917
H           0.66780349183156    1.81438862268588    2.74096233187636
O          -2.00010151603822   -1.97562791495085   -0.31144057764530
H          -2.23108580018809   -1.03722836110424   -0.16160019315145
H          -2.15548022024150   -2.42519241062992    0.52096629732169
O          -2.39913877811209    0.69561782534813    0.06657774073707
H          -2.77393631497464    1.11381193236973   -0.71140628061183
H          -1.48131105669210    1.00417976296718    0.13005757967592
O           0.65774570537900   -1.78044592800644   -0.66058309768643
H          -0.30646096736240   -1.97375412445129   -0.67800292664826
H           0.83561776706298   -1.47780493293061    0.24252129013407
O           1.16707357588384    0.35562562293986   -1.98931385032748
H           0.60126445113252    1.04766827843236   -0.92779876588139
H           2.10867298539865    0.49456711603560   -1.83090041285616
H           0.97511457490973   -0.57725832984937   -1.64741846268827
