    19
        -40.89148814
S          -0.82176464336311    0.58319353738403   -2.65874008009340
O          -2.07074072863109   -0.11512164998786   -2.74366788236437
O          -0.76759175881461    1.40714257516627   -1.35190606686957
O           0.36635328251457   -0.18224408592211   -2.80871460747473
O          -0.83669583242522    1.72230535450759   -3.73916538655625
H          -1.71389003764340    2.10284315771098   -3.75219042881475
O           1.91401915770289   -0.47680549294795    2.54812503636602
H           1.45220733393861    0.09901490329837    3.17177407119525
H           1.43684612790333   -0.39475835977590    1.71483149690736
O          -1.24898185088627   -1.99523559001718   -0.98285697237062
H          -1.75110408301756   -1.41757543363418   -1.58252786195239
H          -0.86090000941089   -2.67855379355735   -1.53425495033188
O           0.91364792447858    0.92693931077339    4.83601349436118
H           0.71779485321938    0.12290872721500    5.32259957130363
H           1.78269839473064    1.22215510741752    5.11736092756663
O           0.56333580865892   -0.30676774638103   -0.02373150758386
H          -0.09244000527032   -1.03058141812001   -0.16604332591173
H           1.25242430757889   -0.45019399186105   -0.68241372989352
H          -0.23521822141720    0.86133489884826   -0.68449178761592
