    19
        -40.91892617
S           0.05599744018296   -0.00833924146126   -1.43356711159206
O          -0.20634529209602   -1.36956782821032   -1.84824295826928
O          -1.10614044233751    0.57207214946392   -0.73454812629486
O           1.26221301081193    0.16463811650972   -0.66285291763134
O           0.22665922188972    0.85398590904542   -2.74806781697831
H          -0.45271775900064    0.53322161640907   -3.33396422813619
O          -0.37383927455498   -2.64053358062450    0.41098151921249
H          -0.22720074746531   -2.25149783962561   -0.48920837118185
H          -0.99266201818356   -3.36480909501700    0.29456940285112
O           0.56880420997422    2.57480386825225    0.33863444384744
H          -0.36141927780060    2.55043252414963    0.09565178134002
H           0.98829954576453    1.90468238423271   -0.22658454473744
O           1.15812801369235    0.60852829379727    2.04939547652767
H           1.64743450697425    0.20581103127229    1.31444072249787
H           0.99300546626361    1.52547931032994    1.73294423821808
O          -1.04288407377062   -0.45577165429020    1.52228438482296
H          -0.13649626804746   -0.02657382202360    1.88418581777956
H          -1.18907775367134    0.03312274239364    0.60244066148870
H          -0.81175854902009   -1.40968488482195    1.23150760604169
