    19
        -40.90688336
S          -1.55589501107301    1.07895951536175   -1.01972023525643
O          -2.08623454645377    0.01989475757754   -1.81885504598614
O          -1.41707736026695    0.55911898904173    0.43519159621215
O          -0.35221067485026    1.70561921010907   -1.44210223063425
O          -2.65765335928858    2.18588447333412   -0.84990757348640
H          -3.50866238639452    1.75130300565812   -0.87195536964477
O           1.48034560938488   -0.33541436281001   -1.24528325995111
H           1.01399478685856    0.47965693646030   -1.48783579502432
H           2.07918096937676   -0.08860783021347   -0.50677010910286
O           0.55001468094965   -0.63514508200524    2.33549343354611
H          -0.09160615571416    0.06729896515764    2.19382132927174
H           0.27445807708254   -1.36748953114114    1.77309464230136
O           2.80250625182230    0.18710310565928    1.04314946213786
H           2.06209207737827   -0.05265957976654    1.63595992424302
H           3.55454686320959   -0.34097550707381    1.31502492716563
O          -0.44532053359583   -1.66264782138520   -0.20231684673131
H          -1.02983514467200   -1.88629661213351   -0.93373561320697
H           0.38446833144846   -1.26688759462118   -0.63665180182864
H          -1.05711245533159   -0.39871504720066    0.28339856583090
