    19
        -40.92085569
S           0.71146129737090   -0.14966561515001    0.78498780036308
O           0.85779037121792   -0.72481347848646   -0.65097811837790
O          -0.51696603949458    0.61195428774872    0.81976225166936
O           0.79589745302516   -1.18344968199622    1.76512340592118
O           1.92339356115604    0.76820783458879    0.89237321310648
H           2.01538745472360    1.28105453787064    0.00844237649955
O           1.92084555654594    1.87858889097205   -1.38351694110557
H           1.90725829543533    1.11131851355261   -1.96310189792003
H           1.00215421433168    2.24550492418929   -1.38591255921140
O          -0.60735324957384    2.53009584648840   -1.00061912835625
H          -0.83434067170685    3.36498855118469   -0.58689509563527
H          -0.69283515185091    1.84300090203440   -0.30554453408606
O          -1.22158791253411   -2.91120898790686    1.38789067899000
H          -1.75785256773146   -2.93960072854784    2.18254712952103
H          -0.41274958079510   -2.41622239777623    1.61955364346824
O          -1.56599546961099   -1.44028028730187   -0.80718228759077
H          -1.58180034408328   -2.13759847218156   -0.11403783740959
H          -1.88140396285651   -0.63560337666322   -0.37989824807849
H          -0.06130325432649   -1.09627127552754   -0.88299384028418
