    19
        -40.90688330
S           0.82240102194927   -0.97980987295777   -1.72924780862912
O           0.06276700850181   -0.32675074957459   -2.74800816987082
O           1.37939413061171    0.10864133087080   -0.77426890702651
O           0.20282071954139   -2.02283673887948   -0.98901184903567
O           2.14489382767044   -1.54146133078353   -2.36423018948499
H           2.39223984876613   -0.95794324454622   -3.07971083510293
O          -0.85101752739553   -0.40303811510878    2.84571629356146
H          -1.39012664532133   -0.02703559398820    3.54306201819104
H          -0.18266581019120    0.27229755594269    2.61261537547726
O           0.81192028021192    1.48931087982584    1.80946250534548
H           1.46097898361238    0.99996874958753    1.29526576011333
H           0.22896687219548    1.91437956419701    1.17079255134574
O          -1.80370176443264   -0.69451528291384    0.34255369500784
H          -1.55337605815198   -0.71154010206059    1.29230339011274
H          -1.25683968468691   -1.37216496539560   -0.08452281987728
O          -0.75330566024642    1.42126047387568   -0.64652051524624
H          -0.99672393971146    1.41825106561108   -1.57783280949782
H          -1.28958796795698    0.66486443017195   -0.22941641632552
H           0.57096235293400    0.74812193493238   -0.68900126202097
