    19
        -40.92022163
S          -0.77384817712146   -0.47234595603448   -0.18111800913909
O          -0.72728653146200    0.86925170808782   -0.70310373138008
O           0.45957328681366   -0.88764980004240    0.44543796836485
O          -1.93945497209918   -0.58749439246159    0.80713328944987
O          -1.14882367955067   -1.48123082355733   -1.26636999449636
H          -0.27686296479431   -1.85140060048128   -1.66149346912969
O           1.53092524430218    0.55179887941363   -2.13484243926001
H           2.21774587336127    0.95946000288291   -1.60286138410618
H           0.68398405223077    0.81638295463750   -1.73268420074430
O           1.20079271616051   -2.09536361059979   -1.97292997446391
H           1.52816637644341   -2.19819808740043   -1.07220181393223
H           1.45281969665035   -1.18234115607974   -2.24044030884770
O           0.65253473373820    0.92895230935285    2.41121696038212
H           0.72081892599788    0.25813537778309    1.70505603962154
H           0.78939098581837    0.46516796726229    3.24004147751597
O          -1.79225467116947    1.76653061739493    1.72044075903015
H          -1.62727480345381    2.16558740477886    0.85812838222681
H          -2.04640054740268    0.32985198199940    1.25390326181856
H          -0.90454553419348    1.64490525221353    2.12668719940365
