    19
        -40.92136504
S           0.73287491335002    0.45626799198306    0.61774514031066
O           0.96917077464356    0.05671356931301   -0.74837734158920
O           0.92830883451818    1.84554014227981    0.88307852522521
O          -0.71828951825973    0.02809561315626    0.98061413238861
O           1.56559031430627   -0.37780951337799    1.58524351597426
H           1.18285427971039   -1.32859504270077    1.59007489488683
O          -0.75235737516494    3.33468411764414   -0.57493154590666
H          -0.01973920134294    2.92913176328519   -0.07106449588134
H          -1.16400496173472    3.97133418407793    0.01284492425098
O           0.40315480203142   -2.62376406137226    1.42319051128619
H          -0.50162458191461   -2.37605614800136    1.63456340720830
H           0.42959266975560   -2.76419033672412    0.44378795519516
O           0.55951954644676   -2.51140570422052   -1.20770618816974
H           1.31569172008633   -2.88450242913652   -1.66459972822061
H           0.71322758306244   -1.54288920096991   -1.16301344754480
O          -1.74418537871110    0.94367276892412   -1.14386390178310
H          -1.28475333142556    0.34455300343357    0.19492437433507
H          -1.53292788621423    1.90228673748554   -1.04167536826872
H          -1.08210320326734    0.59693253495269   -1.75083537373715
