    19
        -40.92136393
S           0.90050201726988   -0.38995575506052   -0.98036955431281
O           1.22569644663796   -0.50844061905392    0.45209971025157
O           0.80456375653646   -1.67499215750603   -1.62717316618016
O          -0.24942325099387    0.46342719421091   -1.17776758899843
O           2.14120833676245    0.36441293524612   -1.62271050888848
H           2.73009991480151   -0.33697234135088   -1.88635589960914
O          -1.62739288991470   -1.98668269544815   -0.66213414495915
H          -0.73633281986982   -2.05383823357625   -1.07459269756272
H          -2.11416861795988   -1.36710606605345   -1.21282504806840
O          -1.45325586120392    1.46972047519341    0.92135838692501
H          -1.19936224143593    1.26919481754994   -0.00839010152025
H          -0.65534815889701    1.92850848281828    1.26557936724737
O           1.12958461131983    2.07544913320615    1.17377869145892
H           1.50408782587445    2.57725550052171    0.44788298183688
H           1.32631929924259    1.13856728263390    0.98435988756788
O          -0.99824890360396   -0.88328502909072    1.55096821240040
H          -1.39848557764535   -1.41601050927085    0.77333514828515
H          -0.01006159137410   -0.82169910643455    1.27771498728410
H          -1.31998229744991    0.15244671262096    1.40524133737057
