    19
        -40.92453853
S           0.36711453316919   -1.23814000624981   -0.80919886103066
O           1.21103901753956   -1.22242480461139    0.38070252582532
O          -1.03913538218169   -1.36674131207466   -0.44482527118718
O           0.61361348603144   -0.10787848818138   -1.67978990633623
O           0.75413306975331   -2.52951672108576   -1.63226104016721
H           0.58205496205857   -3.25786963104574   -1.04250709221727
O          -0.48632692861588    1.84261294932602    1.04453055952850
H           0.49335067946544    1.82242736318221    0.67683353337457
H          -0.56510543317295    0.97276838026068    1.61903940132623
O          -0.56362222826182   -0.44309720217690    2.10142536162745
H          -1.32618173244089   -0.88517429104892    1.71000840889478
H           0.20426335141412   -0.81307851495169    1.59576521371584
O           1.78874687694242    1.45235749539335    0.03192729405194
H           1.46698482897520    0.96395576228973   -0.76520625589508
H           2.20656445635835    0.76465259477803    0.56387445724376
O          -1.75837107035136    1.07174276869517   -0.99029294912631
H          -1.67291218022585    0.10047991445660   -0.81962404062116
H          -1.09128409993762    1.65411073403166    0.21103582217364
H          -1.18492620648937    1.21881300876151   -1.75143717102619
