    19
        -40.91940437
S          -1.03603655365170   -0.18606809256860    0.18241421221336
O          -0.91411024545811   -0.15897019916188   -1.26015006181717
O          -0.52409673831392   -1.44190525257383    0.74065443038393
O          -0.37097508768918    0.96507034182692    0.80347569864741
O          -2.54050891175261   -0.12680462009428    0.57272257438148
H          -2.78892816052121    0.80389180427110    0.39091309666074
O           1.21670611701915   -1.16986581752930   -2.30158645004051
H           0.39371579615257   -0.68948357727621   -2.00781004560060
H           0.91767201687353   -1.87617102413841   -2.87821716144663
O          -2.46126005060997    2.49067760019986    0.29798294679754
H          -1.53750303690976    2.20010328787243    0.42615753590976
H          -2.68993129429141    3.02835795989413    1.05988365452660
O           2.19206674138767    0.57690429727976    1.04841108863459
H           2.37613914755284    0.64098111074355    1.98794364842368
H           1.23945968084627    0.83330516670109    0.93597895742613
O           1.82931747751351   -1.73464228976871    0.07503468614059
H           2.16294128072920   -0.84159495643520    0.46072238056348
H           0.81327327437774   -1.73816304658076    0.41155616884326
H           1.72205853672426   -1.57562266267092   -0.94608737065298
