    19
        -40.92071448
S           1.22932735786550   -0.48725315686997    0.66943086255567
O           0.69251519400401   -1.00580287042542   -0.60448243062356
O           2.43505985336894    0.28229123838117    0.46582858295642
O           0.20108041236230    0.21144073220287    1.40537593130649
O           1.63658446251152   -1.76101649505125    1.51107948855676
H           2.53446212704965   -1.93460477664986    1.24294040864121
O           1.09199922986362    2.44967719986263   -0.12738285494632
H           0.67642414643383    2.63054304510452    0.72087573518671
H           1.75900306573512    1.74733573808943    0.05912982147471
O          -2.15906877110793    0.50261816112774    0.28791589184303
H          -1.43155227563273    0.44432789390532    0.94945763983932
H          -2.35803329953149   -0.43513788355172    0.08173802416946
O          -1.77473037470354   -2.04022921679220   -0.40822110657497
H          -1.94744096176463   -2.59567683681589   -1.16982226829439
H          -0.82355538443158   -1.81491583023125   -0.43604787262963
O          -0.51172081393194    1.02147911482402   -1.48480111333693
H          -1.35442924943434    0.89170267984677   -0.79147426341204
H           0.09193935750606    1.73783307892917   -1.05643486508671
H           0.01213593443271    0.15538818311867   -1.31510560098792
