    19
        -40.92071443
S          -1.33090935703527   -0.56467148465838    0.32512944688156
O          -0.42955609984684   -0.12060127537624    1.36321492696037
O          -2.47480511582978    0.29594890453802    0.12946512159479
O          -0.59688061527933   -0.79028386977730   -0.93591537163113
O          -1.89099322044531   -1.97916259815466    0.75202780362986
H          -2.73616571166239   -2.03141250864708    0.31463536753204
O          -1.01880482548317    2.46475636947239    0.30640849913006
H          -0.74718723345623    2.41211305917706    1.22757769575830
H          -1.71827942012128    1.77649097495108    0.20662164955130
O           2.08855641647500    0.30061257199982    0.74037936613253
H           1.26001514540171    0.12534486076374    1.24337331556071
H           2.30592600938320   -0.56982713267788    0.34501014812853
O           1.78653358322119   -1.97734362541948   -0.60836094722130
H           2.07341127924806   -2.35203894554305   -1.44249563733695
H           0.85728582104363   -1.69889356146090   -0.73141746504025
O           0.76820084451479    1.31838526200875   -1.08915074536063
H           1.48110377551200    0.98034334418828   -0.32479639933818
H           0.21048127797993    0.46700676830324   -1.22233178951244
H           0.11206743633747    1.94323288621022   -0.59937499546871
