    19
        -40.90754422
S          -0.09333882144901   -0.41446746249890   -2.11113473628128
O           1.13106066650719    0.31660931903040   -2.00131532929400
O          -0.04530666504842   -1.83161599673312   -2.04551919671908
O          -1.10780341686411    0.10540710712458   -1.05864916400223
O          -0.78804185675088    0.02637673010857   -3.45115193829815
H          -0.51966732632710    0.92660701964979   -3.62797255880522
O          -1.49781694605098    0.91231791060816    1.80695092557240
H          -1.40627233424928   -0.04707984204719    1.83596292889868
H          -1.72650938581777    1.13073228316397    0.89902659307533
O           1.09890235838936    1.69276784103949    2.05143665648647
H           0.13248650989655    1.53884985797444    2.03140198785226
H           1.35153823387246    1.72773640462032    2.97524083673068
O           1.74040636577796   -0.46513013244407    0.56570654287639
H           1.66290490944590    0.35561110269212    1.09969224232302
H           1.77428125585614   -0.17404900989905   -0.35809890908766
O          -0.56590004683833   -1.58911598727013    0.71871708213233
H           0.38528802085013   -1.25047432385881    0.78379834684815
H          -1.01275836586406   -0.57703436807569   -0.29231315843327
H          -0.51345314558311   -2.38404844318070    0.17822085806518
