    19
        -40.91836435
S           0.92074201471738    0.03963595048033   -0.73357873939024
O           0.22016194284728    1.40385134297954   -0.89273152958674
O           1.76069083949147    0.00780199692865    0.41520140713643
O          -0.09513120608430   -0.98816755483143   -0.79133551761378
O           1.78099103540303   -0.02319503061480   -2.01089345575696
H           1.12753371075666   -0.10205141451514   -2.75106441627743
O          -1.35221836444673   -0.71962418293191    1.62620820701930
H          -1.03890035642519   -1.02040214105382    0.75809765801480
H          -0.62478505145948   -0.93026154894716    2.24574994834553
O          -0.43539081836994   -0.26461126223482   -3.34523601108758
H          -0.90752974172353    0.57077467110150   -3.29942848732178
H          -0.65531074240230   -0.75937701250413   -2.53754146233940
O           1.04900486537036   -1.12370616198233    2.79450734470586
H           1.43503571632720   -0.63447268487987    2.04788490860600
H           1.50879345222390   -1.96419460943769    2.83246672067973
O          -1.12885037254925    1.81556296061715    1.18612279339253
H          -1.26765162319399    0.86256129210750    1.48044660812228
H          -0.29711307228311    1.65311532856029   -0.03153338871975
H          -2.00007221872461    2.17676006052910    1.00665743161729
