    19
        -40.91724300
S          -0.64480718366139    0.21404156335441    0.85912326006056
O          -0.37090147497682    1.59576036816899    1.12342090112867
O          -0.88239411301797    0.01823882203532   -0.64897914662246
O           0.35331127854374   -0.70561842757790    1.32493454394005
O          -2.00820456950767   -0.19360638176315    1.46222281286081
H          -2.68194578756795    0.33341516772522    0.96800289925726
O           1.73849822227729   -2.34823397410445   -0.27267512052869
H           1.18396202892316   -1.89887902036727    0.39476168847037
H           2.50868497358583   -2.68220595160366    0.19024545284353
O           2.17481114352977    1.36561064534303    0.33408654740684
H           2.48327939862282    0.79863981789476    1.04510319051359
H           1.30848450761684    1.69931325908078    0.63246541078100
O          -3.38964641499261    1.04936031356801   -0.37041064472888
H          -4.04815773063033    0.50707779066254   -0.81281607983186
H          -2.56436261656763    0.95695505649949   -0.86764673596360
O           1.34535618321084   -0.13130023391545   -1.68973120935187
H           1.81515130434638    0.50118303200096   -1.09176863725960
H           1.60946205889530   -1.03128203640236   -1.39123723358099
H           0.06941878133909   -0.04846980057445   -1.18910187943439
