    19
        -40.90494231
S           1.01119894127859   -0.01555602901630    0.89588890527141
O           2.00162484897893   -0.75131780959001    1.60539104373769
O           0.02130836745544   -0.94486764714712    0.17726019896850
O           0.33640334161897    1.08075748615637    1.50621272693849
O           1.76764122329219    0.63076328925207   -0.36709802822034
H           2.50769887368525    0.07683001550427   -0.61230978175489
O          -0.06238107310188   -0.98978728748423   -2.61272032286445
H          -0.81226815120049   -1.49310772060180   -2.93644803749141
H           0.04242863351743   -1.21770422210265   -1.67731726100347
O          -0.52482200194663    1.60238255299349   -1.84222029234600
H          -0.35415136122230    0.78994027089430   -2.35530370399842
H           0.29614992552350    1.78382018361455   -1.37363137683423
O          -0.32110921875328   -1.12711235220886    2.93858894066620
H           0.59120386738598   -1.42661801477397    2.89587369309575
H          -0.30076037258834   -0.24132299311915    3.30752273442276
O          -1.95783324179396    0.54899732611989    0.09249650999781
H          -1.71467183364624    1.05757006158258    0.87637952495853
H          -1.61539069172772    1.06834412361277   -0.68450266944760
H          -0.91227006679612   -0.43201123366635    0.16593720593256
