    19
        -40.92161551
S           0.35682727624195   -1.00461221435479    0.00972771458594
O          -0.90021098919943   -1.46758424401650    0.55067908998654
O           0.31366395817053   -0.60752115702982   -1.36507135695701
O           0.88281834095458    0.12815998830379    0.89095059838304
O           1.42811950147520   -2.09978140563835    0.19220091581420
H           1.35274874089692   -2.35678886628681    1.14579458571587
O           0.89389291255606    1.89584156707810   -2.18723205199243
H           0.72062310219994    2.01583022614691   -3.12231051908813
H           0.80576563657252    0.94243569977515   -2.00395273768148
O           0.60888421712170   -2.21944635290572    2.65609196122357
H           0.85558414100048   -1.37407701235133    3.04190059429851
H          -0.24407145754815   -2.08254836146743    2.21321767735048
O          -2.23097371217088    0.58907828180395   -0.59106253006703
H          -2.06746870191738    0.37028803057603   -1.51188548336647
H          -1.98877230103921   -0.20849663646878   -0.09111241627943
O          -0.26710570450392    2.20795091106548    0.20143190841744
H           0.18869348149896    2.38412147427045   -0.64803544599122
H          -1.13506066345922    1.80615836453758   -0.03909119010222
H           0.42604222121948    1.08099170697902    0.65775871568993
