    19
        -40.92218946
S           0.19688554993175   -0.84008917442516    0.77152928467807
O          -0.33896016003208    0.36897653625811    1.38868366578028
O          -0.82276653882447   -1.53402637439052   -0.01518865997492
O           1.37593203234734   -0.53786624750354   -0.03383553147580
O           0.61885773110803   -1.81970165863432    1.90521661193591
H           1.29589090737037   -1.30051140445552    2.38702267638336
O           2.17375020821422    0.22768414356287    2.46585626569124
H           1.36017457322505    0.74876484536927    2.45304830387575
H           2.44208122087674    0.16685431649129    1.53933002513808
O           0.83397766091456    0.24221724671911   -2.44673059837465
H           1.24927378635612   -0.39040849837922   -3.03685354743156
H           1.13907631399508    0.00466555059253   -1.52989919049067
O          -1.95185808145978    1.70910667834244   -0.13596039586335
H          -1.30902942573832    1.29524071603712    0.50100676965932
H          -2.79583446841539    1.73778059770705    0.31981827693932
O          -1.59894199153283   -0.09542986489581   -1.86509478358197
H          -1.36165567290671   -0.81628002869857   -1.12108318628862
H          -1.84238930193275    0.72663751700819   -1.28486821351775
H          -0.66446436382914    0.10638508338281   -2.26199776334104
