    19
        -40.91955065
S           0.60891714142054   -0.24457515883829   -0.96410870516448
O          -0.67558415688164   -1.09209162661818   -0.90252283741889
O           0.24814652438035    1.14456464466314   -0.79795357701171
O           1.58921167945101   -0.73840006161263   -0.05539273984526
O           1.07002400800228   -0.47647872650781   -2.41699046303005
H           0.35356744425224   -0.05925741518151   -2.95897663188502
O          -1.08298680701675    0.80181404049683   -3.10505851443650
H          -0.84298562065617    1.30627261113264   -2.31067072988161
H          -1.82107970598008    0.23767865265268   -2.85807012267378
O           0.38717423735093    2.05065805307956    1.76016438245930
H           1.10225685308736    2.68884571289465    1.79046859042141
H           0.27559918333261    1.80860910779727    0.82363148729298
O           0.78537072638235   -0.50701140831624    2.54353412894196
H           0.60403367048690    0.45342923936261    2.50649610516361
H           1.35308392825471   -0.67923057255618    1.77563721804863
O          -1.27339956113063   -1.62660348861298    1.47086802161341
H          -0.53683029820776   -1.18331932793459    2.00169462352869
H          -0.96312956689460   -1.31441162739059    0.07588008810612
H          -1.18138966962533   -2.57049265845145    1.62136966579913
