    19
        -40.90722487
S          -1.77201599325568    0.58380718562823    1.39215114751908
O          -2.60221021611392    0.26940221135891    0.14940411787403
O          -2.61116934675687    0.89676803878551    2.49035049887201
O          -0.73806898379718   -0.38916714639677    1.54959276820403
O          -1.03144704330777    1.94853279563999    0.97209215301747
H          -1.61315316215363    2.64192548375414    1.27459085526475
O           1.15664115724017    1.15839989425188   -0.77970990073627
H           0.68433122966946    1.84113015353941   -0.29564238552963
H           1.57384547669680    0.59503515178787   -0.07956027609143
O           1.91447732097365   -0.57633888622965    1.08090912490703
H           1.02407325529442   -0.55632407927102    1.47063314329024
H           1.94010739623662   -1.38052332495090    0.54868600764316
O           1.58033723137259   -1.92881586112922   -1.41078527279403
H           1.84150917274524   -1.04747279141661   -1.69950880022827
H           1.97604939017996   -2.55589594592620   -2.01811758472926
O          -0.83459749231950   -0.41789027113245   -1.49016802227793
H          -1.93322530118352   -0.04906541464225   -0.57308521650899
H          -0.10560460143106    0.23872944842030   -1.32565974354930
H          -0.44987951014036   -1.27223663208443   -1.25617262402471
