    19
        -40.91793140
S           0.85391876092587   -0.90232391228444    1.24317347216785
O           2.25496751697267   -0.56014635764937    1.32957390500883
O          -0.01029708022299    0.21491151704291    1.65703749077029
O           0.45789026846355   -1.41617288899187   -0.05176425133021
O           0.58343313492352   -2.05998165373755    2.28579666836474
H           0.99998502903564   -1.75941901924778    3.08898733513616
O           2.10390579662042    0.58243752708030   -1.02331047409632
H           2.43165430591969    0.24320301775915   -0.15976772450164
H           1.67147730137951   -0.18464217377921   -1.41697919856125
O          -1.90137521867868    1.37532775819545   -1.43321612936333
H          -1.99618459991418    0.40359958246602   -1.23420756643112
H          -2.68031710363481    1.79911329622243   -1.06711018031045
O          -2.03882143151845   -1.15038099771800   -0.77187066124981
H          -1.13062022271395   -1.29424489135826   -0.41362685515365
H          -2.16485058045336   -1.82498484239555   -1.44179660978912
O           0.17438956843334    1.94093985241893   -0.08588241687286
H          -0.65722065440335    1.77871843171081   -0.68087310586399
H           0.05732020303554    1.27530974774719    0.74612977323476
H           0.99074500679873    1.53873600659661   -0.57029347117338
