    19
        -40.90743805
S           0.10962367347439    0.68706739719707    0.99158523990740
O           1.15101572848280    1.16189803097550   -0.02268548050556
O          -1.17673492099639    1.21225253133163    0.64016428282020
O           0.17740816510127   -0.72332047959085    1.20130052369632
O           0.58648984424560    1.39380725880428    2.30006493935946
H           0.36532082097822    2.32022542916684    2.23525504944496
O          -1.53941460562814   -2.32968502416449   -0.19788755572605
H          -2.10630362797913   -2.78963770910140    0.42357320564966
H          -0.84978763620737   -1.89203547772918    0.32813899845760
O           2.93939755736120   -0.42604160009963    1.60231417587334
H           2.92085165098284    0.23018347339297    0.90287751338833
H           2.05194003237161   -0.79654833158150    1.64000238578045
O          -1.97595820780741   -0.07769653552367   -1.61832414783811
H          -1.96903163899737   -0.99628100650753   -1.28345259719835
H          -1.96723289093995    0.48021543465928   -0.82310575907883
O           0.44932531091836    0.41233549555035   -2.28010022987413
H           0.45238967152565    1.14126750759925   -2.90563682451282
H           0.90401393800404    0.83349538289289   -1.00170466934359
H          -0.52331286478266    0.15849822277244   -2.13237904046566
