    19
        -40.91410377
S           0.82170076330673    0.92482535600257   -0.91413318133312
O           0.39108752360449    2.10110863761605   -1.60188964627234
O           2.16361338719339    0.47653161911268   -1.06592843478553
O           0.50059355332258    1.08468326464553    0.59087254067973
O          -0.11857565379465   -0.26334171422713   -1.33395558442837
H          -1.02508576272864    0.13071799711353   -1.42616654698336
O          -1.51127443344632   -0.55876735947436    1.69119740825095
H          -1.62853632006185   -0.40546766758821    2.63045481657437
H          -1.03147591256597    0.20418650080023    1.33986730678387
O           0.28033927508487   -2.32756379820486    0.61737581675551
H          -0.48234213968085   -1.92128031575172    1.06977701306120
H           0.20006911470239   -2.05252602948775   -0.30244643105109
O          -2.13125411412018    1.34417321604198   -1.60921538299372
H          -1.37385894527600    1.96029124800757   -1.62182654396169
H          -2.56780451219439    1.41932193042577   -2.46125807284817
O           2.10745313762833   -0.62093454356744    1.42660461997186
H           2.68839288724853   -0.50992739797332    0.66131276739851
H           1.17260184152939    0.43291421569819    1.07494117527315
H           1.54435630958201   -1.41894517673645    1.23441635022732
