    19
        -40.90758998
S           1.01438406730028    0.83014281634398   -1.68769069973114
O           1.50825514699332    1.92395385739213   -0.92833769899444
O           1.79244852023926   -0.36637970112250   -1.75185809440984
O          -0.42777525889641    0.48866678859702   -1.21952463217193
O           0.75152259131498    1.30308903375904   -3.16321603898259
H           0.75651641839029    0.52821130098531   -3.72280177667314
O           1.35699901677266   -0.94847105123964    0.91445085749174
H           1.79212166833186   -0.88066664765383    0.05355238921141
H           0.59565551270899   -1.55487917657711    0.76988612973031
O          -1.01899063820738   -2.02267708210060    0.26906359388704
H          -1.13868940956112   -1.55857315378271   -0.56353543617169
H          -1.58916972755943   -1.55948288497446    0.91255068048015
O          -2.22669278114316   -0.33989427631045    2.06208568544227
H          -1.61980450388183    0.39229099656955    1.88517512919371
H          -2.10160205263153   -0.58678127812013    2.98028193559416
O          -0.05338764577857    1.20167193550646    1.19261395994541
H           0.52017407963490    1.94288607101290    0.96572883363881
H          -0.47063529010347    0.79659063389087   -0.25056104069290
H           0.55867028645455    0.41030179749497    1.28213622277104
