    19
        -40.92008987
S          -0.41312562054651   -0.17107492799350   -0.67385389943287
O          -1.07470259838532   -0.05398841187882    0.59582988095851
O          -1.02871381046468    0.80260849634503   -1.68271086864364
O           1.01705899382349    0.04281946235674   -0.60928091422186
O          -0.69538403920023   -1.54287776999779   -1.29294608805875
H          -0.80110819080757   -2.19992069165373   -0.50699299560772
O           1.79656691353330   -2.06421707226568    0.89512716940177
H           1.64306826193120   -1.23359692141491    0.40914929263312
H           2.48056445471533   -2.53695341114681    0.41638886241918
O           1.12993240063012    2.64860017418589    0.10387383506312
H           1.22880277518844    1.69749023826044   -0.08383368300970
H           1.67835344988289    3.11031962826302   -0.53381031457208
O          -0.77102547172616   -2.79990960603522    0.88926917463221
H          -1.16807993522285   -2.05048036495727    1.35121533240121
H           0.19437965659595   -2.73128280253052    1.06219124175207
O          -1.53860583950205    2.61650880518446   -0.01015680381599
H          -1.73488374227455    1.97334720541574    0.68311967176512
H          -0.59959119898707    2.87219698164497    0.12909832258737
H          -1.34350646913180    1.62041099728455   -1.14167720612946
