    19
        -40.91799439
S           0.98321107742849    0.16508430056006    0.17380764281540
O          -0.34441825499372    0.68073299244580    0.82645983834952
O           0.60793276913278   -0.71119626141487   -0.90540454857804
O           1.80550800074006    1.27783746256421   -0.17554506290196
O           1.61739257021210   -0.63150936091375    1.31034816927685
H           1.23025213870478   -1.58470107355757    1.24909767824978
O           0.40857819044423   -2.79330680160778    0.86126970306820
H           0.33454888379280   -2.53891223223352   -0.06945180654864
H          -0.45056020850044   -2.56582092905210    1.27694966920081
O          -1.65901386555527   -1.48780198592448    1.95999053869384
H          -1.32519914445947   -0.62833090328474    1.65701669979909
H          -1.80013861754324   -1.41569788139795    2.90589421100032
O           0.57291210023736    2.78364695084476   -2.02800388537395
H           1.12870106173838    2.38839121302352   -1.32980372860163
H           1.10528928223863    2.79038087170908   -2.82584286859095
O          -1.41578070518730    1.12578685845480   -1.40799154587111
H          -0.92070206359859    0.95784419355908    0.02257117211517
H          -0.86265419230273    1.86796512563845   -1.74200416141689
H          -1.01585900925076    0.31960745972934   -1.75935772105128
