    19
        -40.91184043
S          -0.63093299239799    0.92349910343179    0.21590376034889
O          -0.56240887976054   -0.50257602476828    0.47757472325109
O           0.41888365890583    1.68935737921020    0.83887419744460
O          -0.71176812006934    1.17197372819479   -1.23003546831414
O          -2.00386560318570    1.42073912170313    0.82322678998312
H          -1.92578633903809    2.37086596180888    0.84658884244055
O          -0.05366052356421   -2.23573817228136   -1.41964550534173
H          -0.87414636260697   -2.50891095966491   -1.83475983280856
H          -0.30302970278822   -1.73275328545944   -0.60811047912854
O           2.37557367847723    0.20106305547588   -0.01823944151524
H           2.33196785216176   -0.56980055209812    0.55412986600834
H           1.77475232669827    0.87174075170986    0.38902925134320
O          -1.08363650625566   -0.21027806322852    3.16997395385365
H          -0.84189769337431   -0.42107216981846    2.25920686753108
H          -1.92332457300861    0.24919277436453    3.11730441744333
O           1.13964119807926   -0.13723875044711   -2.19802813868879
H           1.79896490562048   -0.01303964407542   -1.40779596965808
H           0.73859231115880   -1.07229940489075   -2.05995228081281
H           0.33608135475612    0.50527515891322   -1.91524555199166
