    19
        -40.91990217
S          -0.52675536230312   -0.33894415450789   -1.37575247891383
O          -0.65237916252287   -1.22963294190633   -0.19918366276904
O          -0.13202882757259    0.99163824325228   -0.94073727636633
O           0.32111573495717   -0.89268202506414   -2.39012652116907
O          -1.98635004526358   -0.20653823177093   -1.95934668243779
H          -2.43573969648438    0.40546402097630   -1.38021405217204
O           2.48921376963482   -0.08461736428455   -1.13348606079207
H           2.38819585960800    0.86569066885746   -1.24295313035044
H           1.81821802422381   -0.48188812412296   -1.73505108845542
O          -2.07262095179041    0.07862455975082    1.60386986030464
H          -1.63987499353722   -0.48762884819095    0.92949783681515
H          -2.50620763988620   -0.51464678857818    2.21941770921031
O           0.28226992882552    1.40445959141550    1.60576449535602
H           0.13953800112265    1.53343209518813    0.63911098657968
H          -0.59615788449697    1.11460047910320    1.92092809999158
O           1.43499338660716   -0.73659199776684    1.08349114765758
H           0.59280627407519   -1.12225838864459    0.62393845994077
H           2.02986517304246   -0.49984676179851    0.27458196447196
H           1.05189841437947    0.20136595248092    1.45625040598164
