    19
        -40.91892664
S           0.38092476470631   -1.36837747789916    0.19440013994497
O          -0.79477978694035   -2.06296252261891    0.67318166849325
O           0.17324055681198   -0.83799868110364   -1.16619531631290
O           0.87671976041417   -0.34287430546240    1.07842042809028
O           1.53122457815197   -2.44446419586532    0.05351023497830
H           1.09732144265825   -3.21273336375636   -0.30592201761709
O          -2.52825238269333   -0.14453435160375    0.92727452778216
H          -3.39892858541531   -0.51177218881208    0.75959876780661
H          -1.90161919515545   -0.91245234484464    0.95249661040636
O           0.52521596371998    2.32215640585931    0.49750832239513
H           1.31421977982174    2.14031829446543   -0.06178017131377
H           0.58774754574453    1.64876651005386    1.19337696556535
O           2.37232095345595    0.89299550457509   -0.79997117655229
H           2.13275337315862    0.32049351014212   -0.05207876496617
H           1.99240806296943    0.45950882457380   -1.56978456110224
O          -1.24905515024543    1.16708092944667   -0.83367842146986
H          -0.56264276518293    1.78069349585371   -0.29557384456246
H          -0.66421106751662    0.33694045384012   -1.10777822725564
H          -1.88460785870356    0.76921550367505   -0.13700516411905
