    19
        -40.91790566
S           0.79497804391628    0.63079877648876   -0.15868620039128
O           0.64086610303907    0.78657412790068   -1.57639871839861
O          -0.19832399572824    1.50887071645927    0.57953652406767
O           0.71644694325495   -0.72930330604080    0.30967619015005
O           2.16365498687337    1.23469164453917    0.28588389172582
H           2.83311885705361    0.70563509405091   -0.19627348351312
O          -2.04351831438129    0.31219836927940   -1.41907948549727
H          -1.12382871746609    0.46561179182399   -1.68575306414392
H          -2.39552032775798    1.16912618292379   -1.16884528758273
O          -1.87995798407652   -1.55498944022558    0.56392513220437
H          -2.19602577249111   -1.02496788422638   -0.19097876045989
H          -0.92797132473567   -1.64838348529362    0.40850203568523
O           3.01096697800939   -0.66455811631173   -1.31754022232155
H           2.48315292530658   -1.31850667363772   -0.84578246131302
H           2.45478368858508   -0.34073531480186   -2.03529047973955
O          -1.32130866875549    0.19780774429949    2.37985004854319
H          -1.70176397243765   -0.51446292818824    1.77679085898207
H          -0.63919743718964   -0.23375285851518    2.90081049666929
H          -0.67055199015031    1.01834557342866    1.38965298071507
