    19
        -40.92307680
S          -1.39736527512668    0.48791379604777   -0.82847134539474
O          -1.72568865249761   -0.93954763840762   -0.76287912905996
O          -1.00321519990894    0.99383653678935    0.48341541028043
O          -0.41148125351399    0.79680608727401   -1.83389476459137
O          -2.75551693606420    1.18827011286017   -1.21607016421017
H          -3.35537908384318    0.44938664683875   -1.23595935313057
O           0.30647154034418   -2.07580253571249    0.12458366845942
H           0.30640137394357   -1.65856518350842    1.06532211417420
H          -0.59696125022283   -1.74945763351234   -0.27769364022502
O           0.16662646824433   -0.64116340990582    2.21827368766844
H           0.97983194905909   -0.14011661519865    2.34303483454372
H          -0.44593316997285   -0.02248488417488    1.76439626023813
O           1.60354226371742    1.44142907089583    0.72600675348612
H           0.62724837773133    1.41869930949288    0.61292451649360
H           1.88207437393142    2.31743917328015    0.45551866501208
O           1.75621405005104   -0.48683841259672   -1.12866250026307
H           1.02810443602399   -1.51374220071975   -0.43673285974793
H           1.03684007661768   -0.03695666668030   -1.63123643960020
H           1.99818591147846    0.17089444694114   -0.44187571413672
