    19
        -40.91793138
S          -1.26539823281699    1.10609664624468    0.51441820325971
O          -1.37027365531429    0.14809107648153   -0.56686267103409
O          -1.92487746598882    0.68631907229468    1.72944387784044
O           0.13701297976726    1.48366455477646    0.75382386491427
O          -1.98260239615903    2.42410325266384    0.01583116711192
H          -2.04077943871199    2.97196206227684    0.79389739345566
O           2.31229399343931   -1.07876545879903   -1.02480576234711
H           3.13489987320382   -0.60635681638146   -1.16792355706531
H           1.63548236415305   -0.63807608281918   -1.60835107322179
O          -0.91721763807946   -1.71351095467730    1.42635653869182
H          -1.20600409467447   -1.76526883557109    0.50744676495828
H          -1.40468664529163   -0.93375334725103    1.77635079285776
O           0.47899348593841    0.16705566744550   -2.41156045567747
H          -0.23111262062606    0.26027735440059   -1.73269148308038
H           0.06451818278405   -0.25580157339408   -3.16601581206368
O           1.35448146894777   -0.58930002963451    1.27472628023194
H           0.52546987696664   -1.18690251788509    1.41091231989059
H           1.78809634739386   -0.85172685628162    0.37209443694011
H           0.91170360506635    0.37189278611423    1.10290917433787
