    19
        -40.91892652
S          -0.26595662052102    0.10433974986939    1.40587105420206
O           1.01092055841114   -0.00998914379758    2.07709841898330
O          -0.39800534391581    1.26049421991665    0.55462735175438
O          -0.59866667505875   -1.13209035807895    0.67338917700286
O          -1.37130330806656    0.23595265930238    2.52893161236162
H          -1.10334570921395   -0.38257594723646    3.20222902760999
O           2.69339715011067   -0.12875842314384    0.10160200020364
H           2.13056101577780    0.00933785059643    0.90616526873951
H           3.43510489616027   -0.67001257559404    0.38064406096997
O          -2.50547463510691    0.30327790933426   -0.83521126637329
H          -2.44582897373497   -0.61159056360497   -0.54491530862109
H          -1.99299531629771    0.80421609018318   -0.17872951753071
O          -0.31521934847316    1.02217191685750   -2.18530386841374
H          -1.25645259291755    0.77901603352866   -2.03187542271783
H          -0.10169713460856    1.57512931836712   -1.41713743159777
O           0.82452764070749   -1.04416526283688   -1.35635971750959
H           0.18668558868187   -1.20610880297709   -0.53552819285239
H           0.39144664316285   -0.19736117492149   -1.83786408126339
H           1.68230215389383   -0.71128350549523   -0.90763315540373
