    19
        -40.91833218
S           0.38268742644793   -1.28686131024531    1.08521904788769
O          -0.87809612133637   -1.79834896968644    1.56217787149713
O           0.61588420081364   -1.63050401605473   -0.32617358799549
O           0.58726838540737    0.12853691578918    1.32233177931406
O           1.51731000761227   -2.03509574229782    1.89910955535423
H           1.20990945903286   -2.93618053336041    1.92471030328073
O          -1.63251465292479    0.96327824693685   -1.66559570807707
H          -2.26190803707885    0.46030603478575   -2.18567722524931
H          -1.85759529715351    0.78162566734548   -0.71085813885121
O           1.96302164957439    1.70261372081563   -0.20833276301417
H           1.57053881527086    1.12264252971958    0.49328626267930
H           1.62902341794609    2.58754855626345   -0.04756896018216
O          -2.12834980190383    0.40186327932582    0.84259048970229
H          -1.84256993708363   -0.50134851630696    1.09682291847416
H          -1.57468979227096    0.97622165172310    1.37926175036796
O           0.78697775001524    0.23186323378779   -1.91557397116871
H          -0.18664247399218    0.56804312618386   -1.89936246389276
H           0.76049798010622   -0.63608363548027   -1.27690456120729
H           1.33924700157835    0.89987973084062   -1.36946259888197
