    19
        -40.90863227
S          -1.64311320025225   -0.59641489602660   -0.56801324883940
O          -1.59044535344554    0.93411158668277   -0.50302641619599
O          -0.72657239694490   -1.09524376373299   -1.55095389203096
O          -1.54786311830307   -1.16116988066440    0.73658147073426
O          -3.09335782374428   -0.82540991177300   -1.11429292232427
H          -3.06379843273386   -0.60092738201108   -2.04191851501829
O           1.86472925872912    1.69036750365890   -1.00088828487036
H           1.36884887310476    2.00428583385291   -0.24030512681789
H           1.97256637848108    0.73887694554802   -0.87403000994804
O           0.86185312606759   -0.71984686754551    1.92582633683877
H           0.00144078828683   -1.13039644499243    1.74519251376002
H           1.42522640138607   -0.96263841002143    1.17227476601106
O           1.77688277466309   -1.14955585605256   -0.61964217697162
H           0.89266111066765   -1.18004077133512   -1.03611223795441
H           2.36468892431555   -1.65525795675632   -1.18379773926023
O           0.03997833356485    1.64486709727619    1.29589140039018
H          -0.42904993520943    2.02285849168977    2.04294602459117
H           0.44218508411340    0.77669760923476    1.61648935519662
H          -0.91686079169558    1.26483706313275    0.19777872274269
