    19
        -40.91312588
S          -0.57043717095830   -0.21659573469536   -1.95098824568798
O           0.85935095649306   -0.05953872615618   -1.37004185846369
O          -1.47187357532592    0.43594237930678   -1.02205954897817
O          -0.63955532998706    0.16771008467769   -3.30671943842466
O          -0.78266175686945   -1.75627611176030   -1.83353711481940
H          -0.99147487390779   -1.95536137057815   -0.89778350758255
O           1.09207325959948    1.39351353544312    2.13357886784120
H           1.92602577054689    1.66278485432268    2.52158310050147
H           1.17848599206976    0.43393370617362    1.92520773236682
O           1.24118565221889   -1.11951730807756    1.22934170725063
H           0.33119666669247   -1.44165658552948    1.28710162507298
H           1.40492150685692   -0.95547488788602    0.29093470421546
O          -1.48281048559601   -1.49485394598860    0.71878614364504
H          -2.33057975329336   -1.75484845366129    1.08540268915216
H          -1.61316610460928   -0.62454654537844    0.27888211440095
O           0.57868673553639    2.19073703763474   -0.32486751776532
H           0.76650647389897    2.01797018068987    0.63656602160385
H           0.88530476299648    0.90741380227079   -0.98191128571275
H          -0.38117873631099    2.16866408921568   -0.41947619892959
