    19
        -40.90604223
S          -1.15582364909201    2.01188057748142   -0.04607071800588
O          -2.22814092340875    1.34721657488557   -0.70661970263950
O          -1.32605476265572    3.30942424786438    0.49412867638135
O          -0.54938509856981    1.06295641613788    1.01210618529799
O           0.04653799598393    2.10691184477828   -1.10307557435816
H           0.51598591296302    2.91238773263539   -0.89677873550159
O           1.99930759686400   -0.31575765177236    0.73097163803219
H           1.68741003240871   -1.15561259089532    1.11975105186859
H           1.47361224009648    0.36787169862086    1.15711865489727
O           0.58900189646296   -2.54255459439218    1.45935817706598
H           0.81198060004000   -3.35665909956563    1.00420665235286
H          -0.24144941063643   -2.22845702869802    1.07768706917695
O           0.81736905006285   -0.62023162232710   -1.65326500749466
H           1.43789501218616   -0.53687894351249   -0.89196421409116
H           0.66219519717363    0.27738352867331   -1.96161238153693
O          -1.23990159513813   -1.08417783349090   -0.13131082803994
H          -0.80019851512570    0.12429805836702    0.68274859833982
H          -1.99013124030551   -0.62084492685072   -0.52984408818269
H          -0.51021034931716   -1.05915640784538   -0.81753546360313
