    19
        -40.91892647
S          -0.56981089237421    1.28564420651587   -0.28499614556966
O           0.04348885162111    0.51220992375564   -1.33605743875596
O          -1.18361700357232    0.40678397461347    0.72824659975082
O           0.29785850469334    2.26842689697180    0.32753205149628
O          -1.77406590668516    2.07310730605831   -0.94110091778390
H          -1.99205246177874    2.74943851919351   -0.30643723461348
O           2.23908684585357    0.81696232920986    1.26196256533993
H           2.57321761594287    1.24771306283004    2.05185022765073
H           1.59234320545612    1.44740121535340    0.85271312585497
O          -1.80116000046109   -1.45803348272705   -1.30102419765876
H          -2.22156866364459   -1.22738164222975   -0.46745062235321
H          -1.32457953692226   -0.65391086933628   -1.56744357863948
O           0.76244509110903   -2.11337527133228   -0.93466173892232
H          -0.19455632732934   -2.23700963324947   -1.12805359670851
H           0.97308496113627   -1.27969351526921   -1.38424341792429
O           0.63640952406258   -1.15175185884883    1.37066754146972
H          -0.20713067742009   -0.54758751715262    1.19830802557661
H           0.75545798061939   -1.67309739996937    0.44816963474492
H           1.39514888969211   -0.46584622438701    1.41201911704591
