    19
        -40.91579437
S           0.31563105501392    0.21811748272913   -1.52789005611787
O           1.54705083913166   -0.28065687975120   -2.05749117238831
O           0.64920309059071    1.23212550602951   -0.41484556059509
O          -0.67503435352261    0.75295493142679   -2.39324309659501
O          -0.36962883286343   -0.96354468112090   -0.73248763840942
H           0.35737999320420   -1.43279313801719   -0.26740032451888
O           2.01142457858482   -1.76120613720881    0.07318863631526
H           2.38845871440875   -2.62210302282716   -0.12390702914759
H           2.17291796209982   -1.19970782405424   -0.71306753576159
O           0.61121971751636   -0.13963334802516    2.05170197662046
H           1.19998465596759   -0.86420561387755    1.81768356314729
H           0.86394288402379    0.59486702971008    1.47969589056580
O          -2.06234604632074   -0.00858122884437    1.32542331286431
H          -1.96716612478037   -0.67761119957845    0.63967207847535
H          -1.23305898883155   -0.04657476900370    1.83558516645675
O          -1.65102991970204    2.13413462730085   -0.15769032278648
H          -1.99137232187004    1.43513477534743    0.46192526534202
H          -0.25108388088226    1.74419795732662   -0.24458400632097
H          -1.91649302178254    1.88508553243458   -1.05226915715325
