    19
        -40.92037973
S           0.20777411828152    0.91491796284127    0.53466704881007
O           0.54743995154452    0.99245201511469   -0.94317034792366
O          -1.16365642586987    0.45711303752733    0.68491879079150
O           1.17187328742090    0.14116029252142    1.24973016030951
O           0.28232247301456    2.38394028500801    1.00052852794756
H          -0.54798922155838    2.81295716142462    0.67365328823756
O          -1.16407977002375   -2.05316985778200   -0.25914512201929
H          -1.22200092235222   -1.19439248842995    0.20249979525201
H          -2.03624791735557   -2.22907270184503   -0.61790460412761
O          -2.16372884681794    2.86687204739794    0.25829523432717
H          -2.12393132893941    1.89342071520348    0.30944177091604
H          -2.75336215213430    3.16102020166341    0.95701363834911
O           2.66957728289346   -1.82736629159852    0.18820439374542
H           2.29422535902387   -1.07183409184759    0.67763000731137
H           2.47546246753241   -2.60601305962413    0.71434564105047
O           0.92868416119798   -1.31743815914353   -1.74195245458708
H           0.73918106488901    0.01754116201667   -1.37038911772729
H           1.70575330931244   -1.58706031187528   -1.19333558575170
H           0.15270311993726   -1.75504791862825   -1.32503107492635
