    19
        -40.92246923
S          -0.89321849072517    0.07995370945153    0.58379723666976
O          -1.69836981776294   -0.24103283256072   -0.57155786600757
O          -0.20082968705252   -1.02756068653918    1.17006684962960
O           0.08502717622851    1.19203583902692    0.21407167924546
O          -1.77826174055343    0.75170204999050    1.65620301038341
H          -2.26118867299177    1.45802258921682    1.15815314053004
O           0.27548969088693   -1.67496060563790   -1.72921013430459
H          -0.55812191492542   -1.23567050214283   -1.48855174151464
H           0.36584948094765   -2.41654567926320   -1.12562296321334
O          -2.62472670041815    2.26768104584261   -0.27929167255043
H          -1.86618394442943    2.79794656858751   -0.53927845997889
H          -2.54840471879527    1.42499264801125   -0.75585235861203
O           2.47644890071679   -1.26630258078629    1.23327234327147
H           1.50590968905080   -1.32015016390230    1.32188252321983
H           2.80863418979899   -0.93727297407462    2.07016551090643
O           2.00525585049434    0.17067747540553   -0.94412708114871
H           2.42622678711938   -0.32476481233228   -0.20212506944231
H           1.50930028938443   -0.51383096279573   -1.45566706691580
H           0.97116362209519    0.81507987233119   -0.31632787075799
