    19
        -40.90792089
S           1.36136004784505   -0.56147047077369    0.05622704886373
O           1.18245407390855   -1.05949498259827   -1.39410853473893
O           0.79189578096094    0.76679438311024    0.16592814488081
O           0.83929289254294   -1.51970131762823    0.97054462488365
O           2.88989979458317   -0.45085005245438    0.19553945586921
H           3.15848619200221    0.40749380315730   -0.23540822331903
O           2.98989926715446    1.95374274220011   -0.75238219623555
H           2.03764631819989    1.87293202602205   -0.56455788969668
H           3.33539182812926    2.63146505826547   -0.16548132165322
O          -1.66754893921158   -0.17256254917759    0.68188215246295
H          -1.48419463197648   -0.61606464725931    1.51559565819322
H          -0.87687040291028    0.36909000217069    0.50248154065515
O          -3.84508492742551    1.59667640094474    1.20730066277403
H          -4.33575741642568    1.69965543108738    0.39067474509076
H          -3.11620814082934    0.99142069319848    1.01125008152471
O          -1.11909136187293   -2.12451379953219   -1.09700362944941
H          -0.90517331960181   -2.84703461882857   -0.49959910946371
H          -1.51677544936612   -1.42169245749043   -0.53713413496006
H           0.28037838420873   -1.51588564372323   -1.45174906592594
