    19
        -40.91893410
S          -0.71725315503946   -1.49856221627532    0.49804023610472
O           0.06582334854417   -1.94782918981942    1.62122623147927
O          -1.43189537186233   -0.25414259788854    0.70507116120917
O           0.06955741204175   -1.45495783674367   -0.74388147300294
O          -1.82970886085295   -2.60437304029658    0.25520179772078
H          -1.38889927272506   -3.40952454151521    0.50919950672162
O           0.93947869195593    0.52352788755534    1.92331906579353
H           0.77440212835896   -0.44136471781966    1.93153721679482
H           0.05941614792879    0.91195840561058    1.93007889024011
O          -1.61311844303235    1.69133512935845   -0.99613729332513
H          -2.42002851099526    1.57837692608346   -1.50180485939588
H          -1.63599771288025    1.00747616402458   -0.27764928782136
O           2.30158271449706    1.34437485023468   -0.16039879534055
H           1.82919598594956    1.10330405871499    0.68191882263278
H           3.08817340065711    0.79626670533708   -0.19091853164204
O           0.55020240551048    0.68407407982639   -1.86049984668376
H           0.34431488480273   -0.28381055004949   -1.45283036536778
H          -0.29250788369233    1.21819145307954   -1.62480088657264
H           1.30726209092370    1.03567902048806   -1.24667159945668
