    19
        -40.92136351
S           0.35068356830014   -1.32976964119452   -0.18258656229159
O          -0.85690446501366   -0.85250652008690    0.45241144907562
O           0.13497616313482   -2.00150702838108   -1.43998150660724
O           1.34853184626335   -0.25045909390282   -0.28998531767652
O           0.99604898959666   -2.38901862016767    0.80844343514292
H           1.48441688486783   -2.97580973874558    0.23793882555271
O          -1.00957641376945    1.67136125985878    1.14377040824689
H          -1.21748158924089    0.71627277436948    1.02681435512166
H          -0.22069744236542    1.64712191348011    1.72921789958490
O          -1.44032510199722   -0.04215697200041   -2.22706347748150
H          -2.21761288240560   -0.21549221518669   -1.68863001870163
H          -0.86612507274081   -0.83358318777724   -2.11449846450203
O           1.24793221265173    0.73377735109825    2.20570900345224
H           1.45897255391884    0.36325684524560    1.32801397661704
H           1.13751168144706   -0.01727813399522    2.79131275826880
O           0.02671516552130    1.71913623456828   -1.10681608109899
H           0.73423603866949    1.01830455058331   -0.85499796182258
H          -0.62235382367136    1.16755685008115   -1.67557128928923
H          -0.46894832281713    1.87079337149911   -0.14350142062932
