    19
        -40.91685363
S           1.15640565230444   -1.32219082974402   -0.68204537868658
O           2.24992749217026   -2.02823394236041   -1.25336054347450
O           1.06016455248890    0.09644477764552   -1.01822091393283
O          -0.15719800357615   -1.95863538122718   -0.83359353328392
O           1.41771982656197   -1.33596825728964    0.91668952592522
H           2.20610190412693   -1.86717759379298    0.93878135560999
O           0.73302132008357    2.06158551487822    0.76685064679474
H           0.21021933254047    2.68510186889676    0.25740629811776
H           1.04957210766622    1.39232976891512    0.12800549292373
O          -1.21000621405620    1.23962892121450   -1.60165222651441
H          -1.46668886788739    1.09063995086168   -2.51308893159986
H          -0.29708366965912    0.86981175630809   -1.50157956567367
O          -0.57064020785922    0.21929993405737    2.12664178901225
H          -0.12500018162217    1.03459417273008    1.78362296069473
H           0.12569151627145   -0.44992078133064    2.13484037130184
O          -1.90133721674548   -0.52732260974158    0.12752448103511
H          -1.45805105902892   -0.21060355708431    1.02592739553688
H          -1.83041174625298    0.24908781714779   -0.51929427702728
H          -1.19240652794472   -1.23847153999999   -0.28345493648707
