    19
        -40.92025494
S          -0.46327197217628   -0.75031700163824    0.22515819669656
O           0.82951627523517   -0.60033166372747   -0.42486390052723
O          -0.40184699834484   -0.26253714572052    1.60643788342591
O          -1.51585352263616   -0.08802428963939   -0.54278146169573
O          -0.81251185687340   -2.26230289457609    0.32337851416502
H          -1.24901175452665   -2.49113341032082   -0.52866229444703
O          -2.17400935574112   -2.22108092297458   -1.92203202274237
H          -2.07103684717868   -1.28417079482894   -1.65972777413738
H          -3.10849451368701   -2.42716803708635   -1.84385823182357
O           2.79320510702400    0.56170454477163    0.80494245973598
H           3.17480558527692   -0.05915713694706    1.42857740541574
H           2.15841482202410    0.03927412095832    0.24656486213010
O          -0.10412115545123    2.10756595480150   -0.81470626632345
H           0.59720905577522    1.77250149890809   -1.38201313928931
H          -0.77203803654976    1.38340638792786   -0.78171535890232
O           0.77726975573303    1.89384932672772    1.55462549172085
H           1.71228704500235    1.50707237435228    1.35994861811469
H           0.42109747761092    2.18431308752347    0.63038900674408
H           0.20839088877368    0.99653599970181    1.72033799856457
