    19
        -40.92453845
S           0.60411681707023    1.10783428480270    0.85444413905559
O           0.64134543044355   -0.11405718215969    1.64959948138586
O           1.42917279846339    0.97301441099950   -0.34121285668786
O          -0.74671280604142    1.53206828374711    0.55186109472981
O           1.24668007454177    2.25359979945751    1.73154055508658
H           2.13253303772405    1.95504478475737    1.91636373678445
O           1.43620402298708   -1.61319919949663   -0.51408961008409
H           1.59499973693972   -0.63560106837176   -0.54921874151031
H           1.42052794486794   -1.80594003417914    0.43077573683116
O          -0.97837062748602   -1.50482814858076   -1.22552014881707
H           0.02844444390707   -1.69045145298646   -1.01444809949559
H          -0.98046171813515   -0.55251753440407   -1.66003097146757
O          -0.79771532235190    0.89766516776251   -1.96595698914356
H           0.13602156951782    1.05196849620107   -2.15273827217787
H          -0.92175221435709    1.29427423727714   -1.06886644231411
O          -1.76028684780644   -0.94958172553740    1.10553269709795
H          -1.41684883494947   -1.37285195365642   -0.28408433297644
H          -0.86921336146504   -0.73432108838180    1.47874683620826
H          -2.19868414406052   -0.09212006768744    1.05730218758076
