    19
        -40.92246923
S           0.86320322773303   -0.33549811556200    0.53658644410384
O          -0.04376666649067    0.06667019975667    1.56873688307097
O           0.67066151803861   -1.67757725203883    0.03853741776829
O           0.81303822461183    0.64130338183521   -0.63547614642912
O           2.31320697551885   -0.17899529266426    1.04414161861968
H           2.86509191845510   -0.53286644616507    0.30228160845249
O          -1.99618412888120   -1.35306137161769   -0.23134349605876
H          -1.08301205583006   -1.68525182353806   -0.19125027960727
H          -2.28176625802367   -1.25677948706817    0.68062957301998
O           3.01021340909969   -1.25213948219141   -1.21944797027685
H           2.76768668110006   -0.61093167190036   -1.89342044602880
H           2.21133290369570   -1.77193250014216   -1.03328813503714
O          -1.86249175568636    2.02829721222850    1.29644910230050
H          -1.50346782543662    2.84839374475980    1.63924271872270
H          -1.24753758401169    1.32106875039259    1.56910639334213
O          -1.55276661948206    1.08639798214728   -1.16237728012614
H          -0.21526721342697    0.88545214555105   -0.93696705323948
H          -1.90235954361693    0.17573463249382   -1.00545957095367
H          -1.82581520737108    1.60171539373630   -0.36668137164211
