    19
        -40.90951414
S           1.23663774313243    0.21639816113034   -1.24130209938189
O           0.75978894873044    0.01504795588650   -2.57145605914501
O           0.59993503697983    1.46894701237144   -0.64529676958434
O           1.14320621976282   -0.89259203547765   -0.34045160663067
O           2.75766132163182    0.61002921381529   -1.29226872935769
H           2.87933146881020    1.23420592429533   -2.00534926380416
O          -1.65261884654105   -0.98209291868789   -0.22304475924644
H          -1.77077223201584   -0.68764932193237    0.70545729041193
H          -0.72008606655269   -1.22355051195837   -0.29757649553565
O           1.15476560867325   -0.56525248593225    2.34227452034678
H           1.23086504831593   -0.62611904479716    1.37317132255665
H           1.56590652985157   -1.35881838395785    2.69041078101904
O          -1.54564332475599   -0.17799902008570    2.34952953854303
H          -1.89925612190566   -0.65420102977042    3.10222449669043
H          -0.57249177522093   -0.19081792064619    2.43891749777874
O          -1.62749295956927    1.15832779815664   -1.68891282690028
H          -0.38596914395225    1.48971619022235   -1.02370441247616
H          -1.29583431364492    0.81634741131625   -2.52785171271124
H          -1.85793314175409    0.35007299604444   -1.14477071253877
