    19
        -40.91638449
S           1.00838525178901   -0.73357826548129   -1.12325075021461
O           0.69119312509453    0.70981901384041   -1.17217803221814
O           2.36885135813783   -0.96830989459478   -0.71492174899155
O          -0.00174558805565   -1.45589945857766   -0.38947821596422
O           0.89550967652935   -1.23508748377529   -2.62813347360951
H           1.74320778945245   -1.02833808854126   -3.01098981739442
O           1.93461766089371    0.60353884351844    1.36291582703385
H           2.17905424589536   -0.10993557976767    0.74002939133491
H           2.03317187036544    1.40903722656543    0.84746926525397
O          -0.54023953111611    0.76333039977440    2.25886126819612
H           0.39416374912743    0.55811250176538    1.99790859467001
H          -0.48850313745146    1.44093117453134    2.93591006018104
O          -2.52967633210573   -1.00075498927328   -0.57168473907005
H          -2.93268211153654   -1.43516120315499    0.18356375750051
H          -1.59875122969220   -1.34222206673346   -0.61505101077002
O          -1.44530204244819    1.23883826613559   -0.07559583949559
H          -1.16434323527796    1.10455725497676    0.90079359418451
H          -0.52381474682707    1.06260335605068   -0.61855681679917
H          -2.02309677276913    0.41851898271909   -0.30761132382154
