    19
        -40.92453845
S          -0.36675830431962    1.39112209007015    0.50301834753808
O          -1.61037209419361    0.63930228921078    0.38072312905803
O           0.51222904975989    0.78022303008839    1.49429312386610
O           0.28894122896172    1.59079572980353   -0.77227292246418
O          -0.74264518094947    2.82724411437035    1.04242243356597
H          -1.17027126853254    2.67192819905080    1.87967091328481
O          -0.46096073126526   -1.62154993490476    1.44510696724138
H          -1.38157821744519   -1.38564503145011    1.28115474547028
H          -0.02835338502342   -0.75104673015965    1.63814870611509
O           2.25564833662488   -0.07685362752879   -0.46289237075854
H           2.34892264320889    0.01543383039388    0.49279381440202
H           1.65036455324611    0.66543357297227   -0.70811224872090
O           0.57970287349030   -1.92336650430866   -0.82968873791578
H           0.16078411503387   -1.96117783725032    0.12711603201332
H           1.38023765026902   -1.25549309966430   -0.73574180614552
O          -1.13107631344069   -0.43955593927744   -1.93590250383970
H          -0.64952520548440    0.29478792027166   -2.33421831241178
H          -0.13326480207000   -1.41143957616408   -1.40072349780099
H          -1.50202491776605   -0.05014247548015   -1.10489578255578
