    19
        -40.90958704
S           1.80376456883158   -0.01678118259451   -0.60975838415127
O           1.20272729993206    1.10144419817682    0.23741823580672
O           1.68196884283399   -1.27354383558676    0.07099185057926
O           1.31396745367325    0.03452512096773   -1.94935359430047
O           3.32207609154760    0.37797058789854   -0.62288299103454
H           3.65557601487012    0.14671389445913    0.24101950208011
O          -0.92755317104874   -1.68518903317866    0.63640141111384
H           0.01904580356548   -1.75348190553115    0.41776907453188
H          -0.96291924846140   -1.53655524640536    1.59452118707004
O          -1.18724466917818    0.79016355123694   -2.58997373901708
H          -0.23244304826988    0.59687035376168   -2.54030160466802
H          -1.58710326954296    0.04355864888630   -3.04067843310277
O          -1.17519910931861   -0.11609055711133    2.92207194398931
H          -1.10051943976271    0.62639989119139    2.31349197953309
H          -2.01788356343930   -0.02377025150618    3.37056444173164
O          -1.24807615069124    0.83234641973047    0.05765374613787
H           0.13026770996737    1.05908222181360    0.18319175501439
H          -1.40193527397329    0.95200649323498   -0.90953979664906
H          -1.28851683154931   -0.15566935942855    0.21739343533138
