    19
        -40.92122938
S           0.08831145539646   -0.99814364032368    0.52654162387902
O           0.07452361222618    0.31597107208550    1.12715673176081
O          -0.12612349421538   -0.82414566442288   -1.00231610715062
O           1.27070426850780   -1.75735826156203    0.78046010811760
O          -1.14515804844924   -1.78847546131591    0.94249182342928
H          -1.98886048777011   -1.26294802101907    0.70217211847942
O          -1.64408040221881    1.69148679644168   -0.35398722956776
H          -0.95053773735328    1.36481911614618    0.25456595302466
H          -1.27917147159814    1.62061435540525   -1.23893453078786
O           2.84334385748679    0.42490461608045    0.74385285154107
H           2.21196199013527    0.95707649856386    1.23947727393686
H           2.55564433928467   -0.49279889899721    0.89207143716540
O          -3.15451413244759   -0.33454837501800    0.38169533719719
H          -3.59366238863333   -0.06882384561554    1.19328306236012
H          -2.71793698450547    0.47982192396648    0.01960233178027
O           1.95137428038658    0.47028512846910   -1.72676856752680
H           2.39084188183130    0.57565171091526   -0.84048425466080
H           2.54938788475982   -0.05666432728971   -2.26199608834223
H           0.66395156713441   -0.31672473511851   -1.37888388177080
