    19
        -40.92136498
S          -0.53591041749569   -0.81081656296272   -0.42075739833597
O          -0.78637906821402   -1.08742533149951   -1.79896548184786
O           0.99233568846657   -0.68786143217250   -0.15546495255545
O          -1.15691810841676    0.39010164312867    0.08329557664770
O          -0.91310491008085   -2.02063183606813    0.42725240049296
H          -0.44806185784624   -1.92516757174604    1.33579739763403
O          -0.64538240193566    0.88689579006540    2.62633819424940
H          -0.87909043813317    0.82150970878664    1.67512558045705
H          -1.46437362492765    1.05869714863560    3.09482521406792
O           0.37140780883253   -1.54625683693304    2.55937740600681
H           1.26250252754501   -1.43909903928829    2.21423654350029
H           0.04216559658211   -0.63531629802060    2.76284227822213
O           0.15368762652190    0.87981732417429   -3.35294877427264
H           0.65992084937794    0.47631640672505   -4.06087913254464
H          -0.32630823604658    0.15302425929733   -2.90978546516356
O           1.16349768115654    1.67840266440012   -1.03610335274016
H           0.89379730162216    1.53842564008111   -1.97502286346685
H           0.38129190903730    2.02148601582362   -0.59161548565093
H           1.23492207383545    0.24789832751779   -0.47754770464602
