    19
        -40.91091316
S           1.66300662289719   -0.94422513631723   -0.18443680591591
O           0.88106519546824   -1.65691286554930    0.76863375597332
O           1.52927426585371   -1.26610232542797   -1.56854009155298
O           1.48537543488434    0.57140412066631    0.02067098291735
O           3.18289865361230   -1.13830303661184    0.19083690215578
H           3.68107000460583   -0.95201933488781   -0.60229801637880
O          -1.77799164251924   -1.05596411896368    0.92919678018762
H          -1.05216251667925   -1.67357014082696    1.09180238883957
H          -1.75646476342159   -0.92180059358522   -0.04643355449913
O          -1.10092370945349   -0.45203521958802   -1.56683779296618
H          -1.05319986019582    0.52102946375265   -1.55876206941366
H          -0.22004310588771   -0.78032632053541   -1.78852592595256
O          -1.26645285839672    2.22199657912505   -0.90964927001976
H          -2.21197073389725    2.38256472610919   -0.87630326737352
H          -0.97090880532660    2.10723969094612    0.00196362796578
O          -0.47062495099536    1.05002405986549    1.57628751877317
H          -0.18852674928013    0.95166693275687    2.48776795433872
H           0.71784944376450    0.78481813506378    0.65762012621312
H          -1.07126991515129    0.25051536399700    1.37700677662036
