    19
        -40.91898015
S          -0.86356196678978    0.27219814912522   -1.35750742291821
O           0.34227826850620    1.00326007240192   -1.00298177161806
O          -0.66828236768950   -0.73636193006461   -2.36547474966732
O          -1.50563103411704   -0.26446306418539   -0.14451085075667
O          -1.87741641568349    1.34024829497335   -1.93836719292287
H          -2.45914996235765    0.84966556530595   -2.51299711280096
O           1.63137935090093   -1.31113585083178   -1.14074573803883
H           1.57156262087624   -0.33807376938405   -1.11090722115573
H           1.00297766954381   -1.53338717472050   -1.84880789361503
O           1.10176977971081    0.07697473143967    2.49126816046962
H           0.51229957002442    0.82985512439190    2.19959085052268
H           2.00241774737710    0.34992171822973    2.30454497129934
O          -0.44470575851859    1.85643545559691    1.37263897411560
H          -0.09888402120959    1.73567488687629    0.46395158478931
H          -1.32805575515936    1.47614346577442    1.34607354787505
O           0.21266955740278   -1.69369510265756    0.92613116085532
H          -0.61622129163202   -1.17059054440966    0.52981501904088
H           0.88181060465107   -1.69079714563562    0.13708864497610
H           0.60274340653835   -1.05187287195158    1.65119703052508
