    19
        -40.91346204
S          -1.09569141159510    1.67703596477239   -0.42543966962603
O          -2.04808387756235    1.04078355969446   -1.28119435707867
O          -1.45756138678792    1.48206604554638    1.03755736508097
O           0.27839153065924    1.32806755167755   -0.65985617536246
O          -1.22806266872232    3.23191892744930   -0.59733185932529
H          -2.16133633837167    3.43169982894391   -0.63552106495364
O           1.93944799036152   -0.02449618661843    1.15309118792073
H           1.67454228276833    0.65983966405275    0.52308729738330
H           2.23964321107432   -0.77915188500993    0.61175674567857
O           2.10255114839054   -2.24837465681750   -0.44908111696462
H           2.05649231025163   -3.11309007161241   -0.03772444223384
H           1.24179778010041   -2.08489258662117   -0.86002949780597
O          -0.44127920313504   -1.23521142302709   -1.08488967997438
H          -1.28494329229297   -1.12566545586496   -1.53397094074390
H          -0.03279244556438   -0.35157572647302   -1.12032458806138
O          -0.51873353124295   -0.73004216682044    1.60069252010627
H           0.45777346770074   -0.49662455685496    1.63820593945251
H          -1.09434736876892    0.52052001480827    1.37867802757794
H          -0.62780818732282   -1.18280683130250    0.74229429879829
