    19
        -40.91521668
S          -0.63897228963293    0.42086830111511   -0.09054049648816
O          -2.02975954176142    0.48726070444411   -0.40891277729198
O          -0.22407924197571   -1.05637650292713   -0.07791776915998
O           0.27148925469312    1.21638286481188   -0.85651583461525
O          -0.43098062229638    0.84495833840888    1.40453438682993
H          -1.13257420584939    0.36511981262510    1.91183750417741
O          -0.87880092084452   -0.29668878444957   -2.90137836556740
H          -1.68999179852882   -0.17497121801629   -2.40174534956133
H          -0.31807097420261    0.44964109645619   -2.67463425369747
O           2.45708777901580    1.30141380417420    0.68618704674235
H           1.73973137890975    1.51259949114860    0.06122720688769
H           2.09677084209146    1.46459100248604    1.56092599418553
O          -2.44939471067397   -0.69504564722148    1.97870068106056
H          -2.20449544587341   -1.61345444242648    1.83666514998752
H          -2.75596118661510   -0.35747798559674    1.12190420382617
O           2.29782385303710   -1.19342251873967   -0.16091210945270
H           0.79785673868722   -1.18689662618575   -0.11408188882471
H           2.55517488047031   -1.18178441617422   -1.08655221536967
H           2.53714620116664   -0.30671727361561    0.21120887613647
