    19
        -40.91955067
S           0.95923385835902    0.07594781207051   -0.66067799371217
O           1.17881378079221   -0.33736152592777    0.70617303484081
O          -0.06551587425158   -0.87951046726789   -1.30011576800631
O           0.56777742999339    1.43479043973431   -0.83675220585035
O           2.22592790647727   -0.22106829072577   -1.48813755946456
H           2.43946569094960   -1.16097826707989   -1.26027004907340
O          -1.75559873940622    2.00659486316495    0.47798072948966
H          -0.94096150366122    2.13390158666384   -0.03369240951773
H          -1.45121468142909    1.70400584279814    1.35685855880535
O           2.15081018594047   -2.58047101385204   -0.40555864087575
H           1.36886945603056   -3.01391534467441   -0.75870484073943
H           1.85362393874101   -2.04667461896944    0.34935927929678
O          -0.37504452769713    0.93061974542255    2.53978242885333
H           0.19731851509424    0.40202061249851    1.95585447265139
H           0.21012230572547    1.47037506170349    3.07436768365903
O          -2.40444334805562   -0.14135633973302   -0.78994679265420
H          -2.83883164382390    0.13866275419946   -1.59912410004348
H          -1.05128093158975   -0.61030056439554   -1.08832381893831
H          -2.26907182812159    0.69471772452330   -0.23907199942919
