    19
        -40.92218956
S           0.54831762967995   -1.01870949902888   -0.03849583077176
O          -0.87497284603084   -1.16329583417443    0.25022094757431
O           0.75912175428571   -0.22720688104901   -1.24639967704249
O           1.26894185372408   -0.45332010190630    1.10204881449241
O           1.14419983210620   -2.43716908485149   -0.27507485216714
H           0.62404313419299   -2.75554808142916   -1.04197756126331
O           0.76701583720323    2.33394020453483   -0.84280180508045
H           0.72805255708758    1.37485110626302   -1.10493160647048
H           1.62941262097156    2.65025691956670   -1.12065136006251
O          -1.88916855225431    0.81508886835353    1.58412663851070
H          -2.22880110888057    0.44602416174047    2.40223594190202
H          -1.60579644340542    0.03942584389842    1.02892182059291
O          -0.65432040439669   -2.36893565991782   -2.19470068449274
H          -0.23478746868118   -1.53567804429879   -2.44682539502454
H          -1.27366334233390   -2.13040261483769   -1.49220562923387
O           0.42889547342860    1.81340082474221    1.60377955720338
H          -0.57166282378080    1.55820444248578    1.67786215943688
H           0.88384507735396    0.85837900401842    1.50330630687602
H           0.55132723967803    2.20069442589375    0.65156220501806
