    19
        -40.91880969
S          -0.10865324942907    0.69395321616186   -0.95542706791688
O          -1.12946298856276    0.34122857743364    0.01058113018290
O           1.05990176469983    1.36314145071868   -0.22023134178045
O           0.35267880341633   -0.37925443947831   -1.77092718783335
O          -0.64166437273835    1.83486913343146   -1.84259025373483
H          -1.16804992698605    2.42268875369948   -1.24065875710704
O           1.30585377746596   -2.42831027873803   -0.24288163131915
H           1.03595540506391   -1.92081178374716   -1.02487358536826
H           0.47155257155263   -2.60346674562424    0.23745504724856
O          -2.12342729693808    2.79114701602288    0.05932908485003
H          -1.92207799542762    1.89194332291125    0.37876479813600
H          -3.06704143549015    2.82154375530284   -0.11778250377133
O          -1.02123873539424   -2.15369656811291    1.10310008641743
H          -0.89739178057508   -1.97794040955822    2.03802804026454
H          -1.18197399311611   -1.29090951488592    0.68244205489581
O           2.28120137140059   -0.42934543208268    1.06170499172408
H           1.57237774262743    0.67157482832432    0.34882874017152
H           1.95898422035094   -1.27578924720702    0.61301849311167
H           3.22247612823737   -0.37256563449784    0.88211986147474
