    19
        -40.92052664
S          -0.51562734512570   -0.64029084292705   -0.17987922187344
O           0.91811297242924   -0.77780844115916   -0.11528407107247
O          -1.19817428535870   -1.61743602476470    0.78148030891494
O          -0.98387510664255    0.69576808752383    0.09250421079706
O          -1.00461893851330   -1.11727177266769   -1.55049240022951
H          -0.27062459964800   -0.87431094858153   -2.22743632094502
O           0.11977442224094    2.07507528344275   -1.93651473111858
H          -0.26424173323282    1.70893060493375   -1.11750403594542
H          -0.57246088661554    2.59261909790746   -2.35306891318717
O           1.39748238895420   -0.18884991548139    2.46502989067754
H           1.36564565761201   -0.33908685708892    1.50125230019719
H           1.94708736075548   -0.88541073432828    2.83014376001679
O           0.97194636492830   -0.26966254910903   -2.87325506261620
H           0.78152525846613    0.68366654116864   -2.71845795128877
H           1.61459072638384   -0.51547084260441   -2.19731046721222
O          -1.24614122756188   -0.07344016432196    2.77837958700524
H          -1.45985502117950    0.70790643313157    2.25490176425060
H          -1.33139149009094   -1.11558868088617    1.66841730701881
H          -0.26915450755439   -0.04933826990823    2.89709405297886
