    19
        -40.91597551
S           1.14134267601968    1.42881346661541    0.16639222721798
O           2.20811105359552    0.82957642755694   -0.61620592847347
O          -0.10186668752101    1.50290273936096   -0.62546833687973
O           0.93263037556128    0.82047711748884    1.45115540199335
O           1.55716023816753    2.93206510088639    0.42055734395765
H           1.78387964107666    3.23407515467120   -0.45349188161409
O          -2.36532580612279   -1.41679331976516    0.23175106471818
H          -1.98105976693631   -0.97804920633876    1.04253733678343
H          -3.23141631691913   -1.02348078647348    0.10695817732647
O          -1.34936158892301   -0.15214804638691    2.27091709750827
H          -1.07603393453646   -0.67569279977648    3.02672399847880
H          -0.52862646324855    0.29693112645023    1.95667494289718
O           1.55924027866680   -1.61097677540907   -1.13325976455019
H           2.10547865554188   -1.90127253589036   -1.86690168886963
H           1.91446912460987   -0.72215528411700   -0.85919702546153
O          -0.75516985414197   -0.66759737643401   -1.57282503253619
H           0.12514872215898   -1.18018373969301   -1.45205826490845
H          -1.42842321625996   -1.03660737883190   -0.87612103020818
H          -0.51017713157770    0.32011611590531   -1.21813863748156
