    19
        -40.92161574
S           0.07238485016208    0.42894449719336    0.97396508222021
O           1.17319107587844    0.45135302887048   -0.08637441072942
O          -1.17283752999032    0.88041527561947    0.43081919783713
O           0.03548645541056   -0.88379372438024    1.57605034809583
O           0.58014981611468    1.45378506573917    2.00932360935917
H           1.40395476126960    1.04241051435097    2.37442909611607
O           2.50207550617472   -0.23826110258473    2.45563309123587
H           3.01812840970068   -0.25050193778542    1.64452343474539
H           1.76941396410306   -0.86188010847962    2.32631846243722
O          -1.50366911789147    1.46304537469441   -2.18306534052084
H          -1.44466285846885    1.41039386769127   -1.21148510966395
H          -2.41324388316581    1.67872589893705   -2.39483438205345
O          -1.37890425611181   -1.87756486370933   -0.50114188316635
H          -2.17436397156373   -1.34880512251246   -0.40010393203490
H          -0.88750504156667   -1.76348414464312    0.32965148043500
O           0.24858430014914   -0.55792292612451   -2.14829724864502
H          -0.33470645918572    0.16845240253938   -2.45104784352102
H           0.85277040444175    0.02151105322425   -1.02597657947359
H          -0.34624642542817   -1.21682303867391   -1.71838707274170
