    19
        -40.91898901
S          -0.70474634133767   -0.48838542019139    0.68825223301617
O           0.35273595118118    0.35403895347201    1.26488908536238
O          -1.41375968220436    0.21524385074523   -0.36030029377198
O          -0.15233451989314   -1.75817616215505    0.21107568289742
O          -1.69223124002449   -0.84939638060741    1.83298229572444
H          -1.85276991025936    0.00465322253642    2.28706119143644
O          -1.36966314246937    1.55773177143879    2.85469086318222
H          -0.59700776214151    1.38918782234145    2.28049669307965
H          -1.04150596586459    1.59118830285871    3.75639149741551
O          -0.70711487527884   -0.00378734583262   -2.83211643985540
H          -0.49713307877017    0.89133004861439   -3.10810730508338
H          -1.13252509062304    0.07959821967975   -1.93587664409883
O           2.24220745052796    0.54259060624742   -0.50208502470334
H           3.06456235947388    0.38258799810344   -0.03419644686255
H           1.53139790348861    0.56569865834506    0.19392305852607
O           1.17127950957998   -1.34513157626459   -1.82279055191705
H           0.60539155066696   -1.67069860273596   -0.97254091487202
H           0.45192144052945   -0.85760555859464   -2.39354564601902
H           1.74129545335094   -0.60066840792754   -1.40820330343666
