    19
        -40.91782046
S           0.94448934269275   -0.44887706622817   -0.23904376536279
O           0.13730552488827   -0.37545003931234   -1.44088542667840
O           1.83885701755468    0.67742059281872   -0.10104775495483
O           0.06452104194622   -0.56399135601011    0.95979738313408
O           1.76058895067088   -1.77019251333866   -0.29888273041211
H           2.10408436430945   -1.89242031969847    0.61297377457461
O           0.06603497337014    2.47060615026478   -0.67759772693697
H           0.85414193809851    1.92982458253722   -0.40473848717575
H           0.00509827304626    2.34687427384961   -1.62839633001403
O          -2.45278028220528   -0.26134271023180   -1.45182562399365
H          -2.73303215565287    0.09426240900122   -2.29729362991738
H          -1.49168274462993   -0.48494446374928   -1.54241892139480
O           1.97816204204546   -1.80890226061761    2.32452289923000
H           1.63805465602639   -2.59306155898708    2.76220210418652
H           1.21125335748372   -1.23776361154782    2.13700693991018
O          -1.68901035276339    1.11473973925234    0.54636919490955
H          -0.98208835932012    0.37000360273739    0.85998440063960
H          -1.06499340699238    1.80213357562894    0.08331107610159
H          -2.18900418058864    0.63108098364523   -0.20403738590028
