    19
        -40.91612656
S          -0.84477592473701    0.14561151533371   -1.51039798439239
O          -0.70898679082887   -1.02555999794794   -0.61112076418525
O          -1.85929058641598    1.05028748266263   -1.00246128038876
O           0.42288105551676    0.74582104909899   -1.80559268542978
O          -1.41657521229670   -0.45044041412423   -2.85986937593666
H          -2.33674626259361   -0.59764292357560   -2.66327239360288
O          -1.18719083598536    1.99432923621136    1.30283247591698
H          -1.99336430138066    2.29120802168359    1.73050907323951
H          -1.43525535270824    1.77244029314002    0.36509183877315
O           2.01739874618401   -1.13385751534103   -0.90488407806177
H           1.67328485696276   -0.33580966208111   -1.35830383253708
H           1.23899309396363   -1.70264258055889   -0.85881396012213
O           2.21150624070645   -0.37359948594133    1.57535391172423
H           2.26968591974650   -0.61158497548369    0.60293184832212
H           2.68374705616971   -1.05756963843459    2.05366405661969
O          -0.30702151343345   -0.33668327453734    1.72948303536990
H          -0.63209816913587    0.64160533482221    1.69796844061267
H          -0.52914878406996   -0.69759295404901    0.75281071002800
H           0.73295674427136   -0.31831951113477    1.76407094409553
