    19
        -40.92343587
S           1.41493059421940   -0.91347329588627    0.09898497127913
O           0.54785176024631   -2.02116697665486   -0.30513579418606
O           1.76773621787072   -0.06758284375287   -1.02134326532712
O           0.84680224750980   -0.16363034329364    1.20811299414784
O           2.74314575167443   -1.56494850274369    0.64058127387342
H           3.07203177017823   -2.03286232328452   -0.12059819250775
O          -0.20435763037579    2.19090921681409    0.57665020926021
H           0.30131130605004    1.39705131494834    0.85912152120483
H           0.40440485181405    2.92897960235020    0.62847572519071
O          -1.80057722922725   -0.07278341011024    1.53493065717533
H          -1.88400229581217    0.88639259063556    1.49797087028463
H          -0.84461824203371   -0.24005542537061    1.66984941071579
O          -0.51675901355559    0.95193888097716   -1.78669073182232
H          -0.56795090287822    1.61184040241241   -1.06395285235047
H           0.40456624503681    0.60420232395873   -1.72139856156157
O          -1.67186057264366   -1.03286148782589   -0.81898001032028
H          -1.29792800858819   -0.17836303364871   -1.34150560293256
H          -0.80072622587474   -1.58825580387673   -0.65608955638995
H          -1.91400063371182   -0.69533090543684    0.12101690397194
