    19
        -40.91234256
S          -0.47973649538751   -0.13710333528572    0.07563965821151
O           0.25348082382126    1.10030399119647    0.15047479909300
O          -0.87200512195910   -0.37428202392247   -1.40179034022012
O           0.17203768299620   -1.29843532066176    0.58752998465041
O          -1.85503059536491    0.03925576081780    0.75261034236881
H          -2.18436506553075    0.93913970155820    0.47656936236392
O          -2.05901583802056    2.40674325431788   -0.26205128882332
H          -2.20395838062669    2.36797031133291   -1.21111591141312
H          -1.09761041381157    2.38649027521659   -0.12225478263535
O          -0.10875889058682   -0.28038541324723    3.16750181170106
H          -1.06664753616590   -0.24873211006880    3.19896534026820
H           0.11801012016141   -0.80480829249338    2.39218372903657
O           2.60316889726070   -0.03560543326486   -0.58636134166426
H           1.89739020617067    0.57398920596154   -0.31448026606610
H           2.89792795949660   -0.46669490605465    0.21972798522461
O           1.16803573176876   -1.69890176810488   -2.09613666895989
H           1.84044160254189   -1.09980677257585   -1.69058202214855
H           1.09679158956366   -2.44986248490344   -1.49906128752744
H          -0.12015627496921   -0.91927465004762   -1.83736911357744
