    19
        -40.90831911
S          -0.30964688778188    1.64076554023558   -1.23645966370009
O           0.83929210799753    1.29213148702377   -2.01006113893949
O          -1.54405566541927    0.85574572354366   -1.72285580700598
O          -0.20171829687095    1.54752315678645    0.18421023577757
O          -0.71184494185950    3.11193372206121   -1.60316888156347
H          -0.54128623925564    3.23546829314448   -2.53543724201026
O          -0.18406436357810   -1.97967031853421    2.47120301669537
H          -0.79495979078017   -2.06375852549284    1.72839825000822
H           0.29035509404948   -2.81035514252000    2.53849554954187
O           1.64988315616544   -0.06411220554887    1.58627461120498
H           1.13554662012680    0.71498668144329    1.33847100097070
H           1.06229741683513   -0.62518386549980    2.12042017476572
O           1.11722586565514   -1.15913259553514   -0.78270436931570
H           1.54726360829838   -0.85961694125667    0.05281095300388
H           1.23572174397020   -0.42866752337825   -1.40508523866960
O          -1.33801896976905   -0.96367787229468    0.01404323174288
H          -1.63498768887265    0.04243372283163   -1.11133384796397
H          -0.41725706627678   -1.20292134604852   -0.31337474141071
H          -1.19974571260249   -0.28389198096028    0.68615391685726
