    19
        -40.92071438
S           0.96555399020677    0.93554486867034   -0.62456546343823
O          -0.40320328712668    0.67447911976227   -1.11295206383773
O           1.07909382708275    2.24976842558611   -0.03525777230645
O           1.40992807118600   -0.13676213030829    0.23542654714546
O           1.88516012075811    0.92918932223142   -1.90929120736205
H           1.85267206459696    1.83030807348580   -2.21774782671458
O          -0.84986243708146   -1.88195650215969   -1.79258110594953
H          -1.63032087517148   -1.93089598929801   -2.34657948705035
H          -0.63128726492800   -0.93330028610587   -1.70032796566552
O           0.15550000969114    1.42451661327133    2.27098334020923
H           0.50916682123330    1.91519240013830    1.49175568312947
H           0.86728751096386    0.83588116558371    2.53893547210952
O          -0.27958786669760   -2.06729333000201    0.80373363381171
H          -0.52864847105349   -2.33803290632657   -0.10515106820487
H           0.54747642195847   -1.54876402037989    0.67180043945312
O          -1.56759699274889    0.03470198038652    1.02451739215451
H          -1.11535327732220   -0.96653121775876    1.03772623260385
H          -0.99915636062374    0.60432689119393    1.66754275964214
H          -1.26682200397831    0.36962754584098    0.10203244942500
