    19
        -40.91833697
S           0.08361361769933    0.36699353869649    0.92688241631948
O           0.16753955375219    1.73696822159555    1.32022888345498
O          -1.22592322705899   -0.13484215037917    0.61180530188186
O           0.97568329465881    0.14656916016715   -0.34496083664590
O           0.76645541338051   -0.52662022254039    1.95913456938469
H           0.34178928987684   -1.46059487645314    1.85976718927768
O           1.18968159743916   -2.59149066138737   -0.75058756875728
H           2.09142928882606   -2.91553823555511   -0.71030025936834
H           1.23633187704316   -1.62201093939195   -0.73530804965796
O          -0.74351234079506    3.38384128218758   -0.58970342027601
H          -0.48458370079146    2.91241790572971    0.22582951479140
H          -0.10591802113996    4.09083035422504   -0.70763201281720
O          -0.45981907937988   -2.64301096036151    1.36446495131545
H          -1.19937030133678   -2.10226088731006    1.05165516910895
H           0.05727250385452   -2.88472050101887    0.56672006451986
O          -0.77038790231893    1.07935982289512   -1.89711922381399
H          -0.82024419277924    2.02000757440965   -1.60243915310817
H           0.39169375173136    0.51502974633687   -1.10713013210300
H          -1.49173142265542    0.62907184818354   -1.44130739361641
