    19
        -40.92079109
S           0.42150231167987    1.31709025575790    0.54324638314479
O          -0.59623363738061    2.29498407503100    0.25714060365928
O           0.00370004553258    0.35307547425534    1.56321982509650
O           0.94851655508564    0.63936278935549   -0.63307083311981
O           1.65684382126544    2.09205182071403    1.15844225156258
H           1.26454987106005    2.62289630531818    1.84459886670664
O          -0.05481303217282   -1.97371185234793    0.72188361136040
H           0.92277444402590   -2.03978553041013    0.45677152341236
H          -0.08438698968764   -1.04117798951418    1.21320965067278
O          -2.64248506210812    0.77643867463154   -0.44483752641326
H          -1.94602779906470    1.38392160443666   -0.11353740889453
H          -3.25328754739218    1.31947832348908   -0.94677131947262
O           2.31105814049586   -1.55090738152449   -0.15838128263248
H           1.98628135116671   -0.63657361468158   -0.33580311751531
H           2.62010232043238   -1.89855104758314   -0.99737072908715
O          -0.98056329268056   -1.03622838072195   -1.39453277914778
H          -1.76858428323275   -0.50590304696180   -1.13023003952253
H          -0.25444966197666   -0.38046820015132   -1.41476784073347
H          -0.55449756504734   -1.73599228908977   -0.18920982908296
