    19
        -40.91984726
S          -0.68027544249729   -0.63327905597399   -0.56680774121386
O          -0.72355425218589    0.79294379611162   -0.90760996987450
O           0.72093310470725   -1.09981006305050   -0.57259746952096
O          -1.32797781955027   -0.92030817150777    0.68746526443492
O          -1.42085162119436   -1.41023176408341   -1.68747612360505
H          -1.09396103539075   -1.00823260030932   -2.52170806245482
O           0.71290664350008    1.98833432134100    0.91202620270412
H           0.07966354352876    1.61213346860530    0.24920267348001
H           1.19232622119168    2.68453732924647    0.45783351276354
O          -0.01864287139165   -1.16028901926214    2.92842425710385
H          -0.43488005172238   -0.53646384346432    3.52749394235378
H          -0.61072575732986   -1.21448925807310    2.13820717188909
O          -0.57884056034156    0.31520523618264   -3.48712494575522
H          -0.51926062136531    0.75147738559858   -2.61368009131952
H          -1.28689797958491    0.75210350645566   -3.96619943212041
O           1.82590061907899   -0.25430518114216    1.43416647424570
H           1.21784128004659   -0.65968232081217    2.15574022104465
H           1.42672556530435   -0.70913187073365    0.50281346145223
H           1.51957101493689    0.70948808661006    1.32983065581448
