    19
        -40.92279188
S          -0.97218907290482    0.27610208545624    0.26343413998262
O          -0.45139048678891   -0.19341637310720   -1.11722576422163
O          -1.42542393093639    1.62164825094004    0.10274670387256
O          -1.89085742949923   -0.68177071786239    0.79284737666420
O           0.28568200167466    0.24318554479825    1.16617028570925
H           0.94086401817040    0.95319816537507    0.84375011372559
O           0.21643475391581    2.52858960041630   -1.78531306603855
H           0.21896342981825    1.78926787598725   -2.39844124728772
H          -0.54066526876755    2.36901455183093   -1.18851877305845
O          -0.24451839946852   -2.51790489538589    1.79418074978784
H           0.40867083627922   -1.96381887889416    2.22883670914864
H          -1.00204945326426   -1.92968386491854    1.60785672201124
O           1.79841306020865    2.07615568556394    0.26246435357349
H           1.34010711068993    2.30740452183274   -0.58867716664119
H           1.73808680906912    2.85718298946527    0.81769466352142
O           0.16542460319926   -2.63899744770831   -0.79781476007747
H          -0.53206960151807   -3.19997666312159   -1.14508406355968
H          -0.17403161823312   -1.17133085103444   -1.05023700268394
H           0.12054861824625   -2.72484957959899    0.19133002555086
