    19
        -40.90776146
S          -0.95873886874682    2.01766593629855   -0.33251820546386
O          -1.56782098641897    0.83962144859787    0.21589450233015
O          -1.78446740901956    3.04383878222118   -0.85278543995291
O           0.06754301582635    2.58406813303168    0.64305233312375
O          -0.04781401158174    1.48560582943749   -1.53344074946152
H           0.25027831870627    2.25722337190666   -2.00990928066993
O          -1.22432841538703   -1.19091035783619   -1.54466427111256
H          -0.67311033901209   -0.71926265695096   -2.17342102522056
H          -1.49032816775418   -0.52365182061290   -0.88807354015027
O           2.03662928286793   -0.95185683269380    0.67247137803753
H           1.45647418126220   -1.67669368935527    0.34257397925277
H           2.80391926876510   -1.37397128511010    1.06147881715992
O           0.32229402980264   -2.83884712027398   -0.11485797544170
H          -0.26197650931610   -2.32464454257135   -0.71798703825774
H          -0.26055459576221   -3.27352612757578    0.50965142068472
O           0.39818992101506    0.56719147948345    2.06176560144549
H          -0.45911926927092    0.23808319322692    1.75756278822513
H           1.08387291819534    0.02417857942782    1.59212779410409
H           0.30905764585439    1.81588768934805    1.31107890135167
