    19
        -40.91003795
S           1.05963392915029    0.84498015317733    0.61982429915999
O           0.51732307955641    1.53281014808515   -0.51216676017332
O           0.40201110113815    1.33582121348447    1.90641169943225
O           1.08032481298529   -0.58118350400633    0.55241717761459
O           2.53939521654786    1.32982644809549    0.81710689403738
H           2.54751067399947    2.26547618095565    0.62701918447374
O           1.64512656794617   -1.56466709127261   -1.93694844728532
H           2.33703707259493   -2.22546489666245   -1.87272349122045
H           1.57012049854434   -1.15376946023420   -1.06019283462223
O          -1.95839376080381    0.42171258294127   -0.79637084852921
H          -1.13987500079584    0.91478950096871   -0.96508271128517
H          -1.74645897947566   -0.51898647342917   -0.99742402999840
O          -0.93261942209920   -2.03850864637242   -1.00431741293174
H          -0.21162888561287   -1.97301718745040   -1.65127076626991
H          -0.49812748014575   -1.98667153903351   -0.14648110150644
O          -1.96792671414727    0.59931188699804    1.75180302979694
H          -2.57487169356737    1.29824484535456    2.00753040376710
H          -2.06978089107659    0.48463374166390    0.74477877458842
H          -0.59880012523097    1.01466209701182    1.91608693127925
