    19
        -40.90771850
S          -0.58388407002024    1.78102827261057    0.14968616848421
O          -1.41384867248356    2.11653046890697   -0.95214868164469
O          -1.12320859659551    0.93871452363011    1.17493601985812
O           0.73729206121041    1.17574286254816   -0.36955599488335
O          -0.07799041025683    3.09806515485412    0.84605987646907
H           0.16797642081663    2.86815199059527    1.74051462874265
O           0.18485092917611   -2.63767508659659    1.00629908017873
H          -0.16588976350069   -2.67608609108405    1.89769208489266
H           0.94824764129436   -2.02734956929837    1.03979793177578
O          -1.52541456592282   -1.20788272565708   -0.49501718998521
H          -1.63297063600218   -0.49874405960023    0.15645456658259
H          -0.95823680582337   -1.87723750751565   -0.05035826105523
O           2.17930296435442   -0.77870947157917    0.94868300765909
H           2.87793843183863   -1.02201295532285    0.33767747885837
H           1.71108592746730   -0.02945156533514    0.54748561260186
O          -0.20269650779486    0.01656098537047   -2.32215985693904
H          -0.81881562380430    0.69626273535363   -2.62124410594930
H           0.45075472711537    0.67068144338602   -1.28816451066371
H          -0.75449345062812   -0.60658940406225   -1.74663784516917
