    19
        -40.92003854
S          -1.08429199182933   -0.47232882011545    0.13204458080882
O           0.34612825100739   -0.90590491972024   -0.33013911030207
O          -0.96060463304420    0.85131518057527    0.69018428302574
O          -2.00475975513902   -0.59281583703562   -0.95162672202695
O          -1.39648198830441   -1.50828664331559    1.20187424893214
H          -0.56861620516521   -1.62478703361024    1.79377212023599
O          -1.04479409668010    0.80306300596043   -3.04486870387206
H          -1.55071364783349    0.32935571255237   -2.35740523804399
H          -1.09976899102318    0.26746285895993   -3.83841930257525
O           1.36561113945695    0.86332245569196    1.98595697039706
H           0.46625235061989    1.02523532074338    1.63987959458218
H           1.97592148305889    1.14138694993891    1.29888947243452
O           0.81424578636589   -1.69543331105547    2.43346430803744
H           1.36473781212700   -2.15769675864866    1.79554006114271
H           1.11812370007259   -0.75623576702914    2.43498593026075
O           0.88177254770667    1.38238641482061   -1.30801968163547
H           0.73117538232256   -0.08530589552241   -0.77972948281997
H           0.34319307848909    1.31452161356053   -2.12597661040722
H           0.30286972913011    1.82074546313643   -0.67040672666385
