    19
        -40.91237532
S          -1.19193041475504   -1.19627306409143    0.31862120514650
O          -0.93235300246269   -1.25783577553793   -1.08866622438456
O          -0.21159304075950   -2.07534917554968    1.08939307431937
O          -1.28573740674379    0.11121810417176    0.88662326744315
O          -2.54766844071439   -1.93550656395428    0.59745070468251
H          -2.53965593779433   -2.73083473650574    0.06907179241211
O           1.18691817709833    2.16083336625409   -1.40363483981087
H           0.23744722667724    2.00163964478619   -1.59979845645794
H           1.68133084436880    1.60452102696978   -2.00771065377868
O          -1.36982755879052    1.35860950850239   -1.65353284841371
H          -1.21748431561341    0.40046807569798   -1.69053841580331
H          -1.71750733127032    1.51901811028732   -0.77099828512577
O           1.18213145205272    1.31629177586175    1.13051532721943
H           1.27929790304247    1.75481326892292    0.25324961003385
H           0.23939631166671    1.10530462098050    1.21133479982063
O           2.05863496834949   -1.07075926398003    0.93241023249608
H           0.76891309821647   -1.70222283050216    1.00261873479711
H           1.81413976204737   -0.08423202143866    1.00259694158627
H           2.56554770575888   -1.27970407105901    1.72099405396382
