    19
        -40.91983374
S          -0.56166518221346   -0.71340215988003   -0.01386948946760
O           0.19692969938857   -0.16941936688323    1.08087124835483
O          -2.06127137221319   -0.60449641813250    0.28412578977096
O          -0.27638560890080   -0.07809501658473   -1.28192000959841
O          -0.33462216594178   -2.22036805881335   -0.11961265029738
H           0.61033860485707   -2.41334465809841    0.23805764283386
O           2.40219691386969   -0.46768303197460   -1.20682647166204
H           1.46506782764956   -0.32025332455009   -1.42191392983855
H           2.77020434699660    0.39486197417409   -1.00294952911902
O           2.02427550972390   -2.22742600780971    0.77601054752726
H           1.81324321666972   -1.56146941025176    1.44224595919404
H           2.40203687007136   -1.72586667350843    0.02026991168242
O          -1.11323457044984    2.45255086788195   -0.91774927888621
H          -0.73918744944464    1.58532097830883   -1.16345042505901
H          -1.74119609238513    2.68145288346369   -1.60613703291350
O          -1.91263924689922    1.60958010016798    1.48874734737846
H          -1.69010399536040    2.14336593895465    0.69304535157995
H          -2.18848977350353    0.25956727363148    0.82350983556488
H          -1.06549753208737    1.37512410448627    1.88754515230805
