    19
        -40.91234331
S          -0.13676602838624   -0.28587306398789   -0.39666780500274
O           0.59807866120146   -1.26029541601308    0.34256461721370
O           0.22679505743131    1.09197392979171   -0.18660613746982
O          -0.07607582114792   -0.60887318632383   -1.90387796862585
O          -1.64537156816935   -0.43697315812947   -0.09141678961635
H          -1.73789494274860   -0.67049726936304    0.90278161572463
O           2.83705579963490   -0.68708367142059   -1.21289387842203
H           2.22178037547873   -1.02606612640722   -0.55400262210955
H           2.49333600854725   -0.95870882897869   -2.06590579219366
O          -1.45289446923422   -0.99079158888022    2.36974978403920
H          -0.94695024278224   -1.80777525712777    2.32739890368740
H          -0.80071619064371   -0.28515144754815    2.59935634503066
O           0.52718485196136    0.78879823764912    2.49151570122172
H           0.48251884138542    1.13104211279853    1.58359281119323
H           1.37649060103679    0.34518908626865    2.55896383288149
O          -1.03351880693534    1.72240791132899   -2.47184863767938
H          -1.96359852161520    1.79256855636297   -2.24112966648168
H          -0.52651302038431    1.95611275137928   -1.67619526758636
H          -0.44294058456874    0.18999643867761   -2.37537902575601
