    19
        -40.92267751
S           0.84241331379441    0.48538616345036    0.43511412678264
O           0.85122656466270   -0.82916513122382   -0.25377840061583
O           0.70607581452661    1.55286692977832   -0.54485094714570
O          -0.18367611863027    0.51871455543967    1.45239746513499
O           2.22350942444404    0.61614383362067    1.13541199459530
H           2.85373736238747    0.61991553657980    0.38105712004855
O          -1.85505613409118    1.17217831897551   -0.94983778444420
H          -2.24413020068944    1.49270371607081   -0.13141762710272
H          -0.90890650209422    1.45113084192499   -0.91580259008827
O           3.07701822819707    0.55417674992651   -1.34429929773527
H           2.72491433992715   -0.32272367377635   -1.52827412050041
H           2.32374658372872    1.15987778440650   -1.43257304426773
O          -1.95851128777396   -1.37152094911630    1.74162050966935
H          -1.33079513959362   -0.60963083102128    1.80329501677482
H          -1.58955300053715   -2.07026278615711    2.28532706708829
O          -1.49778113117146   -1.33505722359543   -0.75619886145779
H          -0.42699869547266   -1.21655490379048   -0.61430069074256
H          -1.82562052616548   -1.50252456629124    0.20053238380542
H          -1.78161290792361   -0.36565437711469   -0.96342229942178
