    19
        -40.91188308
S          -1.47371651522053   -0.01683978236637    0.93223249851166
O          -0.22060098571094    0.15590174528146    1.59994199726833
O          -2.25176958087337    1.14837329782396    0.66489999735508
O          -1.28332176723165   -0.81828488330913   -0.35874909046934
O          -2.32254203207222   -1.00766663846705    1.80985050483821
H          -3.24180541215342   -0.90850212635001    1.56878978810701
O           1.01978191123635    1.66873405862448   -0.39745373213023
H           1.75578082889790    1.06396128732205   -0.64639236693777
H           0.70856549733212    1.35733815015866    0.46304300891338
O           2.83834399954136   -0.26230604864201   -0.79054299545498
H           2.33695692897646   -0.96844226558350   -0.32858569369815
H           3.68386396117991   -0.19491816051587   -0.34440274701605
O           1.21732394571048   -1.92388832214442    0.58934802391469
H           0.52998004980384   -2.22052395021678   -0.01315511755230
H           0.80156771942311   -1.24058185708071    1.14057728087840
O          -1.03274099142970    1.12194920426517   -1.85353328001709
H          -1.71505250533666    1.68004389141728   -1.46154661056483
H          -0.16546350726321    1.43672021474266   -1.44561305458644
H          -1.18515156491953   -0.07106782499611   -1.12870841133978
