    19
        -40.92343614
S           0.83042784356296    0.06705440944264   -1.46690592551196
O          -0.52432323281870    0.01451192580172   -1.97401960781417
O           1.19542807924372    1.41336017822957   -1.02369995979688
O           1.07872977993926   -0.92485334584436   -0.43277850611332
O           1.79928401671719   -0.28476135285336   -2.65828941855451
H           1.59476241318247    0.38811689876254   -3.30010571647306
O          -2.00061017439509    0.59366511067001    0.10685995281504
H          -1.62607710843585    0.46227396116104   -0.79670271800404
H          -1.92228850906544   -0.29099083266293    0.52134462939475
O          -1.07766464936193   -1.82416274955378    0.82775807292797
H          -1.47746560128310   -2.60131945740157    0.43516312696377
H          -0.28484849439091   -1.61862145104731    0.28472097985846
O           0.99082174392760   -0.21382501641493    2.13829558909775
H           1.29792951433803   -0.52768119496652    1.26237217084231
H           0.30828105469502   -0.84028369936572    2.40324979251320
O          -0.06933854980445    1.83917516668680    1.07076646689164
H           0.51171676156832    1.81427209168122    0.20162702404577
H          -0.99052307687705    1.41243743505821    0.73616067767225
H           0.36575818926636    1.12163190261358    1.66418337924198
