    19
        -40.91892626
S           1.37305365181490   -0.25904121878443   -0.32789490592179
O           1.84895778539567    0.90280845208611   -1.04734003345836
O           0.99120918396074   -0.00639430841695    1.03932141321845
O           0.28848948713841   -0.93690765235070   -1.06290604871627
O           2.56339410978628   -1.29894990721369   -0.28508608397450
H           2.94957757283843   -1.25531867792637   -1.15497671179841
O          -1.65756992228579    0.07640698550095    1.77737812290128
H          -0.76552609945176    0.42722646078867    1.92851983183420
H          -1.52016021343792   -0.89795155554122    1.78872900874372
O          -0.18233885960370    2.51888559604877   -0.95273933039193
H           0.66563869517949    2.00489584099495   -0.94827004121434
H          -0.17283446306478    3.04813109019353   -1.75325624802958
O          -0.46073927090315   -2.26631513483875    1.31262554900838
H          -0.51231591583986   -2.49901933475850    0.38096406446906
H           0.28266412278079   -1.64283820961621    1.37008413572584
O          -1.69974781143277    0.49833025490347   -0.68740101030046
H          -1.23942171523499    1.40468102558771   -0.80831850131749
H          -0.93436423590644   -0.18012794811903   -0.93287423887611
H          -1.81796612430279    0.36149823035570    0.36344101884711
