    19
        -40.92267740
S          -0.26741243747729    0.83561333283581   -0.60259110551758
O           0.90323788831929    0.58960887767432   -1.43145672097810
O          -1.04695813443111   -0.41834720786898   -0.45119440392369
O           0.06298033302316    1.38721438719192    0.69173272163194
O          -1.20146384989944    1.84017939837701   -1.33307399557621
H          -1.34877106277367    1.41007408491129   -2.20469245342800
O           2.26311196299913   -0.63033869511331    0.44797547128341
H           2.48624205392126    0.09134100218513    1.04241448092031
H           1.89878559020191   -0.19839185921662   -0.36125509237722
O          -0.38427190448923    0.12436554551166    2.93041290583961
H          -0.20564148448826    0.75246630082308    2.18754295429945
H          -1.28886607468954    0.28326210279610    3.20683174994287
O          -1.01534384256853    0.05601035860899   -3.24718042373574
H          -0.08779197619837    0.10706766305590   -2.96624241583855
H          -1.40293181495661   -0.65504179722389   -2.72655649610956
O           0.12249342675770   -1.72642733653377    1.26570374450014
H           1.07649547919943   -1.44769630236524    0.99134062800051
H          -0.09580273674490   -1.14104228185581    2.07841551816098
H          -0.46809143522573   -1.25991758391026    0.48187293277343
