    19
        -40.92219801
S          -0.75031856634314    0.78590160091951   -1.02633281245131
O          -0.23016178096438   -0.64889162084101   -1.26307668408078
O          -0.34541580273788    1.20081151899477    0.30810183843416
O          -0.34849282943847    1.66808397130498   -2.06135226499969
O          -2.26844697559941    0.56358359877211   -1.03783183572111
H          -2.41931135115708   -0.18386781946293   -0.38792374372128
O           0.02919635770669   -0.76771151024848    1.96059480631178
H          -0.09140928860286    0.05677865996565    1.43292131098475
H          -0.05901902805278   -0.51755211918476    2.88230526025498
O           2.15965162933505    1.71916620267850   -0.54434257600382
H           1.99578818234970    1.98398458429250   -1.45373580868268
H           1.30957383622556    1.83561293893468   -0.09278455797510
O          -2.22707746574302   -1.47259641321219    0.56848118205784
H          -1.96845401833319   -2.16186765410116   -0.04924136725694
H          -1.45910170072658   -1.34237902820702    1.16210067749159
O           1.98924996981716   -0.91017032942410   -0.11201673075643
H           0.71230612453133   -0.81875063594193   -0.86504045550950
H           2.30703162318016    0.01571987620344   -0.21586343544125
H           1.66441109456075   -1.00585583132464    0.79503720708245
