    19
        -40.92041634
S           0.58356492441832   -1.29008808941946   -0.49415764725880
O           1.56175696995100   -1.90908382189059    0.36972300504416
O          -0.75314577024393   -1.25092098725229    0.05868975463357
O           1.00520290905675    0.05622357759360   -0.92592432092929
O           0.51960947486811   -2.16243760334067   -1.81008089439515
H           1.40249226029465   -2.51231948345559   -1.89015378800389
O          -1.90288490613334    1.06393877423030    0.29606094276775
H          -1.80534120207462    1.37473599501013   -0.63829075360554
H          -1.72533093576879    0.09113877296361    0.23095463629237
O           0.67186500533175   -0.67058390302302    2.50129792459406
H          -0.17984484765443   -1.10109239805926    2.61601098495045
H           1.14145184513428   -1.20718659123100    1.82119368790612
O          -0.87950936054649    1.56226076359936   -2.08533224508212
H          -0.48012447114585    2.42148454371022   -2.24080667252498
H          -0.15383518071444    0.95349560189019   -1.83659748432279
O           0.39083452305789    1.44375007605944    1.10340769665625
H           0.52333547588857    0.72418551679510    1.81818960321544
H           0.79660400779208    1.01393354686872    0.27463782473785
H          -0.71670071795761    1.39856566762124    0.83117774575573
