    19
        -40.91893396
S           1.66259392768303   -0.15477491879857    0.47468197681229
O           0.89175377413252   -1.35235137452665    0.10699841557784
O           2.44661329852292    0.34480670712112   -0.62610703396950
O           0.81913555629859    0.82768112650023    1.12641041677881
O           2.69564796272067   -0.63999015598297    1.57830968615606
H           3.43216038145101   -0.95153736730572    1.06095644141924
O           0.28451478894458    1.58821539144689   -1.49042127557644
H           0.11432343922792    2.02800326713714   -0.65196675599246
H           1.15396089884803    1.15753475891637   -1.36212814914407
O          -1.67043877471695   -0.05528912977177   -2.08978618586699
H          -1.36300256235250   -0.56699868525498   -2.84060634104309
H          -0.97289831850353    0.63352233738235   -1.92047743910009
O          -1.62622831342515    0.46018561841452    1.89819058022011
H          -1.61702367823712    0.19923648846643    2.82087707352466
H          -0.69393207652794    0.71127690234647    1.66991532281968
O          -1.56773845913482   -1.32521267043195    0.09488934336154
H          -1.72866626913332   -0.84241331555029   -0.80719558559896
H          -0.50138224001702   -1.42054722088502    0.12341347218369
H          -1.75939333616905   -0.64134774865089    0.83404603274680
