    19
        -40.91923797
S          -0.24377273121624    0.93786841004711    0.08067860648258
O          -1.32172999872653    0.01792486581498    0.35253540174335
O           1.02903242994724    0.09557936694737   -0.26648976187358
O          -0.46514007927610    1.87709158158264   -0.96629483055418
O           0.16741410519958    1.62849892830244    1.37928802232797
H          -0.03976161263257    0.96195011455084    2.13774177803491
O          -1.78388402381785   -0.49309812212963   -2.25177140748303
H          -2.33937997284190    0.24462168852985   -2.51456856204836
H          -1.74641047094973   -0.46015927973551   -1.27911597691678
O           1.65038935263989   -1.56015961449424    1.86581814413608
H           2.55786497889795   -1.39875837070353    2.13146203646722
H           1.52055004253231   -1.10524361148496    1.01899256945482
O          -0.43881030147105   -0.26268887187863    2.92970094621834
H           0.31028335249430   -0.87280060976634    2.75363534325768
H          -1.14249989130900   -0.53100191860067    2.32286497633446
O           0.75326164724627    0.10514578282291   -2.77027066095606
H          -0.16317076371381   -0.26383111743043   -2.76279432151684
H           0.64174529095195    1.05720798301560   -2.86889832149205
H           1.05401864627202    0.02185280424013   -1.29251398157986
