    19
        -40.92218919
S          -0.61705868912880    0.81552477371399    0.54263641027880
O           0.59758671307336    1.34497355519052   -0.06938531401926
O          -1.61207807858711    0.46027282535105   -0.46924222264129
O          -0.31417887593350   -0.31683179521401    1.41167772823337
O          -1.25497959531135    1.93907709894427    1.41069394446469
H          -0.54450209619974    2.12972420292079    2.05799254872485
O          -0.15166229897796   -2.58553433781409    0.16739513989608
H          -0.81961760792745   -3.15622448374347    0.55354844488348
H          -0.14134415358303   -1.75949900693025    0.72218307528887
O           1.31272467178043    0.11854413744363   -2.23939803910187
H           1.15029349287335    0.61532649818097   -1.39272884630927
H           1.30349506267119    0.77572195114111   -2.93865293307431
O           1.08589244424109    1.71921908126676    2.59253089686683
H           1.44529598027504    1.82783976942761    1.70181611422017
H           0.87869206492763    0.77806987544941    2.66182598168857
O          -0.73832384827133   -1.32152963601837   -1.93743021297855
H          -0.48026163987584   -1.98326671619661   -1.18464099047251
H          -1.23879750539430   -0.56120916620262   -1.38829126826903
H           0.13882395927639   -0.84019862687553   -2.20253044754354
