    19
        -40.92079112
S           0.33549558526977   -1.15347021802103   -0.87401172644774
O           1.36560841251667   -0.11372034000592   -0.82982469509046
O           0.66224043131062   -2.29020241599920   -0.05239626820641
O          -0.98510388152000   -0.59318208429016   -0.62304299359737
O           0.29009371035796   -1.65638159725887   -2.37400111542617
H           1.11137738501798   -2.12776231242962   -2.47285497359772
O          -0.76907402067141    0.67732115302199    1.71093823205089
H          -0.11162617671008    0.09084940329758    2.15375496065091
H          -1.11301005632262    0.12940831277893    0.97666605244564
O          -1.39514144421979    1.80598863631125   -1.60036750363182
H          -2.29545011857373    2.06431283609257   -1.39291480983950
H          -1.32892288780331    0.84039436387453   -1.41029081255024
O           0.99635834567546   -1.18182109877307    2.32386844988524
H           0.96830745670484   -1.63412709554992    1.45300937969778
H           0.90054361272871   -1.87002173679387    2.98507138614305
O           0.52927534974627    2.03405820744850    0.07160102690475
H          -0.19610393509905    2.19051315463955   -0.62105381189970
H           0.01094016452897    1.59878026724789    0.89529812921714
H           1.02419204417570    1.18906256015459   -0.31944891314882
