    19
        -40.91923798
S           0.80885786534099    0.11714632828132   -0.52684675924825
O           0.30956279200918    1.33084790892774    0.07296260758795
O          -0.14942203031029   -1.05013042022081   -0.11501456055665
O           0.93590538250642    0.12011784573117   -1.94498206632801
O           2.11669793908401   -0.27972279912587    0.15471613382756
H           2.05916510901036    0.07902121460279    1.11922284736623
O           1.59075365480228    0.70774261306749    2.41230524998489
H           1.05477783175548    1.39069189741316    1.98596916009366
H           0.95271952477416    0.03936378111794    2.74479341703736
O          -1.64319950730681    1.64412303442968   -1.75672223083843
H          -1.03140858300876    1.68221564859817   -0.99991297033056
H          -1.18285466325626    2.07052895052326   -2.48348841452886
O          -0.21518312377260   -1.25793766991302    2.64645293165887
H           0.01295751387712   -2.15521374960168    2.89747458039253
H          -0.35712109493850   -1.26206028107400    1.68687461642875
O          -1.63507679049957   -0.98513476254597   -2.14823167961068
H          -0.92981615200963   -1.01281919998463   -2.80430857568408
H          -0.82830498369492   -1.14928089381044   -0.88179824935144
H          -1.86901068422456   -0.02949946647564   -2.05946602821608
