    19
        -40.90406954
S          -1.30309566497646   -0.01852962445288   -0.74733107507983
O          -0.97351162264948    1.37403241290399   -0.80854323739706
O          -2.31585924283597   -0.51963639233546   -1.61420933464965
O          -0.07030720703206   -0.89607771751248   -0.64726359597186
O          -1.86813366070848   -0.26975004447613    0.75487124221059
H          -2.78115330397874    0.00923425766081    0.80216535964338
O           0.24501603769483   -1.55528167461455    2.11004327199312
H           0.53674359379005   -2.01039560559132    1.31407066974762
H          -0.59855433851987   -1.15102747597961    1.86850818873791
O           1.82395182285402    0.61669540628693    2.26660438295924
H           2.66436926042251    0.38843801260246    2.66752153389681
H           1.24683367341372   -0.17439949333668    2.35303236456012
O          -0.26396351187697    0.24598518560482   -3.16882107276384
H          -1.10434732883327   -0.21816472920558   -3.21729559279737
H          -0.46909209187260    1.17685659031381   -3.05639525339034
O           1.66073007506495    0.84851890430005   -0.35781922951864
H           1.00159593907625    1.52854246930002   -0.55957567902207
H           1.79600774291905    0.86448181916223    0.62574073141208
H           0.77276983960732   -0.23952229269083   -0.58530365187374
