    19
        -40.90459434
S           0.10759782193662    1.06542309331876    0.03171917146168
O           0.53044324423819    0.16794466053174   -1.00735572531259
O          -0.08653837419042    0.43221965569226    1.30855548560494
O           1.07032732509828    2.24328368612062    0.14021286181020
O          -1.20942728280763    1.78879018854598   -0.38754482669795
H          -1.87701089316138    1.08846841304925   -0.50602174119106
O           2.48311626702216   -0.26073487608092    1.81483736923388
H           2.73322295779700    0.03892508332250    2.69160587379441
H           1.52014398270255   -0.13426430321748    1.74352532269131
O          -1.97385398468485   -0.76979814101222   -0.43143635655590
H          -1.15262576458330   -0.89919899164989   -0.92727301815340
H          -1.75493291429047   -0.94884153228714    0.48977684606707
O          -3.77374747192065   -2.89738508071876   -1.12763842131926
H          -4.51366856980829   -2.54296134098846   -1.62307519347398
H          -3.19927282952295   -2.14904588760679   -0.91807729284530
O           3.16831165380793    0.98967218756764   -0.44215448123470
H           2.01093416869111    1.89725216806309   -0.12729042783833
H           3.16414414504798    0.45996204157344    0.38704373756295
H           2.75283651931712    0.43028898726544   -1.10940919416061
