    19
        -40.90754430
S          -0.46199563605037   -1.20986612645290    1.72112174746983
O          -0.46115889271704   -2.47949290141386    1.08629672547175
O           0.79213607818850   -0.62936633918025    2.08946960076216
O          -1.26335946384640   -0.20887287882126    0.84745314408173
O          -1.35350362087729   -1.27006215289886    3.01494870548510
H          -1.08877849757343   -0.54347265466222    3.57681334750743
O           1.79215184601308   -0.38209923206469   -0.46227413996835
H           1.68212673745622   -0.48853690486480    0.49474816944625
H           1.83822592226720    0.58660121904819   -0.61794708894330
O          -1.13707602784536    1.70937231881499   -1.45881335480124
H          -1.08052111703593    0.83723786531768   -1.86608812509614
H          -1.50555477217664    1.57025580398633   -0.58178758976367
O           1.49422026722665    2.24270871795185   -1.00729795939380
H           1.89784568743148    2.61568278366222   -1.79242587108325
H           0.53245456651988    2.19625575674703   -1.18285063219589
O          -0.49972247939037   -1.10011569410191   -1.37637045585703
H          -0.57143177107665   -2.04532437704867   -1.20827566360549
H          -1.06824278234730   -0.53453789400391   -0.11080002776329
H           0.46218395589338   -0.86636732003972   -1.16592052174126
