    19
        -40.91328314
S          -1.10858009625503   -0.79678476350534   -1.10429029787203
O           0.22544801624029   -1.46552713738891   -0.81991327556493
O          -1.65958028870610   -0.28514104310677    0.12324509418879
O          -0.98508103142451    0.10448144131785   -2.19662610227942
O          -2.04605287827419   -1.97846786406890   -1.56176600850519
H          -2.49534956412235   -2.31347056655247   -0.78843130177582
O           0.04939509336871    1.77886699124487    0.85975145384017
H          -0.70379419929872    1.19936904333854    0.67834845300289
H           0.44128353422437    1.98485866753188   -0.01038652889231
O           0.93013381921965    1.94865954131569   -1.70648366034392
H           0.77912514684163    2.72201130501238   -2.25383054090006
H           0.30961034592053    1.26650901428095   -2.01819726498262
O           1.83497453867536    0.23953877081945    2.05876977830059
H           2.58922994400604    0.25377413701899    1.46681633790936
H           1.21028920898760    0.93137326749116    1.72384654703274
O           0.15328761467349   -1.68947965128040    1.64411031152867
H           0.27099834187852   -1.65091973813994    0.22482373575387
H           0.87572930591409   -1.05208631675422    1.92739962209508
H          -0.67106686184871   -1.19756511856794    1.75281364746776
