    19
        -40.90602771
S           0.48630721081858   -1.09183081470884   -1.13878822380240
O           1.57250575883030   -0.15682452613060   -1.21215409225017
O           0.28366782667518   -1.51603283151664    0.31391080381265
O          -0.74694620894428   -0.70215347271864   -1.73528565999448
O           0.94867678512734   -2.42239273768115   -1.83052819291948
H           1.88977532670378   -2.49487050813139   -1.69031639038336
O          -1.78168922527280    1.37195273332940   -0.41834157596440
H          -2.59039094136150    1.73003353322902   -0.78951898918565
H          -1.51974145800800    0.61791735988466   -0.98159284212091
O           0.79157307704905    2.09186251521659    0.15502355753257
H           1.16573552083427    1.56567716811233   -0.56799352920890
H          -0.17253956268130    2.07480064879132    0.02854580591968
O          -2.23815832799644   -0.56386965232722    1.66159940478933
H          -2.14299427902863    0.22285101302616    1.11015806666937
H          -1.55687942583357   -1.17613328296503    1.37419584811770
O           1.38973058404015    0.16597926191645    1.76617478549552
H           1.13111387343680    1.01925715903016    1.29802553856475
H           0.74726726615212   -0.82828826396266    0.98191869607262
H           2.34298618946022    0.09206468762915    1.67496699886603
