    19
        -40.92218959
S          -0.76806581979354   -0.80427926548796    0.32092618411066
O          -0.53498029600993   -0.80073654789472   -1.11978647327047
O           0.48920744476253   -0.91193696013206    1.05405499632109
O          -1.53082253982047    0.37142143583461    0.74057386474368
O          -1.64347896068218   -2.04311458357909    0.66995046657635
H          -1.08153780644669   -2.78631285495950    0.36660315732654
O           0.02502436460278    1.53620856760878   -2.09380064374544
H          -0.12899984465440    0.59563285652580   -1.80790421996877
H          -0.65726093288815    1.73251492969960   -2.73946723168551
O           1.68690841348834    1.35577374719531    1.43554170265522
H           1.75606700846094    1.47027907575567    2.38583183447259
H           1.33181155585746    0.43698324772393    1.29423660109334
O           0.45063808825299   -3.24207588903986   -0.37932495398440
H           0.31012221826447   -2.64838339175100   -1.12885799404181
H           0.96377782954973   -2.72274583083276    0.25379287216725
O          -0.26343855143071    2.43194859006439    0.24840752196124
H          -0.91500164954204    1.63544316719503    0.51473266628418
H           0.60641082400065    2.15853608404062    0.73841090032652
H          -0.09638135717314    2.23484360123946   -0.75392125816968
