    19
        -40.92025496
S          -0.80286151748607   -0.01947414006311    0.42690062758766
O          -0.27190696250532   -1.16293335803449    1.17559059565125
O           0.19194221013608    1.03854331502092    0.34210518237692
O          -1.27163098636122   -0.40616868143629   -0.90244949402447
O          -2.02408663178218    0.49195191265559    1.24211338363235
H          -2.60964492748675    0.94286175221580    0.59194548900886
O           1.17039501434571   -0.57347178819448   -1.84892635916478
H           1.41645431862107    0.35600590453583   -1.81052849063104
H           0.20453670238348   -0.58893446076919   -1.65268572110470
O           2.57822520155081    0.68021801721822    1.28966124343892
H           1.69298294980699    0.97849572375118    0.95101197365863
H           2.54891339394058    0.78275858375185    2.24287316808685
O          -3.31439140344957    1.24065120397515   -0.91912117233128
H          -2.60172070223526    0.64727862148027   -1.23093241273878
H          -4.14317887707248    0.78494772685229   -1.08428723681020
O           1.99564895835767   -1.58578856570468    0.32603111761017
H           2.43301793325038   -0.75587744341217    0.75131239194171
H           1.01041924974622   -1.54858058410123    0.75579207483727
H           1.79688608623158   -1.30248374986676   -0.64640635088815
