    19
        -40.92218951
S           0.09303776573207   -1.14387204341839   -0.15104373357837
O          -1.22620725699811   -0.75021060485649    0.33325943115275
O           0.45492397917616   -0.39457599599378   -1.35008201765842
O           1.10813424674830   -1.00276009786500    0.89269790796349
O           0.04637882589836   -2.65614269467841   -0.51699976519634
H          -0.64374448844657   -2.68039961686655   -1.21223064734168
O          -1.20910804712817    1.33816081256335    1.86933762532699
H          -1.32372462334756    0.56635052967802    1.25165892742836
H          -1.56423087454506    1.05610446753539    2.71505981517498
O          -1.78990032553096   -1.73042883763243   -2.15846947361785
H          -1.10651915285406   -1.10593644014659   -2.43598443935868
H          -2.18082214168998   -1.33336357172372   -1.36894600641473
O           1.51449303580903    1.92167189724083   -0.86607037112411
H           1.07152730814430    1.07755379344540   -1.15162214301950
H           2.39067004279944    1.90719224432373   -1.25730934423477
O           1.29857135044322    1.35944970628488    1.58502556726635
H           1.32407257684148    0.31551316462339    1.38806300673094
H           1.44725908347345    1.75119701820835    0.63831732811936
H           0.29518869547790    1.50449628927804    1.79533833238095
