    19
        -40.92218949
S          -0.33833040592654    0.66810192352452    0.88243434390640
O           1.11132473053325    0.51004740169558    0.82672180991015
O          -0.82408557936963    1.51970630735531   -0.20332032821462
O          -1.00649729466709   -0.62932927820245    0.88037747447922
O          -0.69825541451179    1.39962892595768    2.20842698728394
H          -0.35110428236892    0.78345853368993    2.88657421837202
O           0.47770672963184   -0.74745473404626    3.17346549236932
H          -0.14138727546784   -1.23430505170117    2.61330977527827
H           1.20901745033083   -0.51329937714838    2.58688901505058
O           2.05477161909411    0.23172680085100   -1.57197783905354
H           1.78445546390526    0.27808638728729   -0.61538088059068
H           2.66111779362312    0.96216596014775   -1.71239290963216
O          -1.38409098046776   -1.61609269356033   -1.48740819833203
H          -1.23806556291634   -1.34613667813308   -0.54078210264542
H          -2.33237910491420   -1.72182914311259   -1.59001334656013
O          -0.31978627426841    0.48760828776571   -2.38861104659666
H          -0.76018706732836   -0.42865757523375   -2.19296165627955
H          -0.59826157277223    1.04361119935681   -1.52688916861519
H           0.69403701786997    0.35296278355426   -2.22846165014071
