    19
        -40.92052659
S           0.48491403729346   -0.26808320383167   -0.63097389992866
O           0.98956749408502   -1.68622647351096   -0.91281908081063
O          -0.95358087019903   -0.21284120813100   -0.71061239355108
O           1.01445444476929    0.17975610823078    0.63301449576703
O           1.08310303901292    0.53951284239076   -1.78639803404688
H           0.44441863442788    1.32533302940459   -1.96123364061370
O          -0.67609473151219    2.35028305205602   -1.81902606524275
H          -1.40508668986531    1.74121031991039   -1.65275009114113
H          -0.43846281771617    2.72026584855790   -0.93822589407276
O          -1.65922012409558   -1.96232259431912    1.20700437699211
H          -1.53725454124101   -1.25179987078786    0.54933749046802
H          -2.28949319923436   -2.57805857328188    0.82724999500780
O           0.22899164173745    2.75257062826511    0.65474096972083
H           0.99509355658668    3.29351593143200    0.85739736658975
H           0.49764004278520    1.82641944390793    0.80424810580585
O           0.93769984112220   -2.49454110288602    1.47874480385690
H           1.06497792735453   -2.15990746556498   -0.00408843108864
H           1.26058341899845   -1.66063266137046    1.84016402786750
H          -0.04225110387025   -2.45445405997972    1.56422589842178
