    19
        -40.92343663
S           0.20877832473756    1.27251491850820   -1.08695568489115
O          -1.23684088947027    1.44094773601050   -0.93173530490790
O           0.93929428931223    1.81293201660077    0.03966333687431
O           0.56215074241526   -0.10957731582213   -1.36984611487250
O           0.61529200329902    2.10223945395828   -2.36304048376557
H           0.34370659167364    2.98552184706649   -2.13379043135844
O          -1.94773513832517   -0.14017308832516    0.84718205912240
H          -1.72515066954601   -1.02250868397363    0.36967314944823
H          -1.80220877616254    0.57800756990421    0.10141633673486
O          -1.00052260440282   -2.08633564505795   -0.49229182651146
H          -0.32489292823799   -2.54541058593498    0.01879473801488
H          -0.50651850654731   -1.46652828753399   -1.06853256299539
O           1.62246686071531   -1.45442684199419    0.65882739297237
H           1.36923602915228   -0.94452323599831   -0.14218141673917
H           2.57797730065819   -1.40943643307401    0.71405464305566
O           0.17994995720748    0.32949476780287    2.05556127248749
H          -1.12209402473069    0.04600593997301    1.50130114858799
H           0.74287178789568   -0.43741411842790    1.81948761404118
H           0.50423963795098    1.04867001374524    1.46241213542708
