    19
        -40.92136407
S          -0.70391831522664   -0.92871957011667   -0.75190409090731
O          -0.23723805801683   -1.36427809237666   -2.04473689390325
O           0.19694342571065   -1.22870593606869    0.33811415461875
O          -1.08002297323401    0.49605046132256   -0.74394544277799
O          -2.05277154428558   -1.71191941626628   -0.45490078010379
H          -2.42039493922043   -1.87944979378188   -1.31806404079941
O          -1.70099273616237    0.80258327839054    1.84960652076384
H          -2.13935992505732   -0.00515096303542    2.12267725222556
H          -1.63703647387117    0.75903577999648    0.87679593538702
O           2.12418065080119   -0.30115994988428   -1.55771301484750
H           2.46951851940528   -0.92947256277333   -0.91740548255708
H           1.30968924200205   -0.72033382898494   -1.91752149538618
O           0.96112873049081    0.71639214988463    1.91842412678526
H           0.05098847537053    0.96391640652991    2.19447319211145
H           0.82899275319001   -0.17651207946591    1.52519136696257
O           1.08862515679150    1.69617091529081   -0.35360614938061
H           1.66264583454521    1.02173514561388   -0.86766048036277
H           0.13826356242180    1.39247343275729   -0.59629935293604
H           1.14075861436283    1.39734462264049    0.69847466527898
