    19
        -40.90774461
S          -1.91692216138067    1.34973082128792    0.01017952904178
O          -1.43740784434237    1.84467135228793   -1.34935002005729
O          -3.06363366505649    2.06414731293296    0.43555529064296
O          -1.92835471552989   -0.08342450258253    0.04263488249133
O          -0.71195187647574    1.77364223888535    0.97904346365684
H          -0.80173969430733    2.71392557902356    1.11763042712178
O           1.75188339161270   -2.13674722702860    0.73815476635699
H           0.96737713536995   -1.78333797457864    1.21779291192377
H           2.36659204549742   -2.42854119632228    1.41278557457553
O          -0.25765255038529   -0.90235911873670    1.99726931112774
H           0.04357948442485   -0.01118127493555    2.19298613294483
H          -0.97021366939717   -0.78354203981928    1.34543815965511
O           2.18345425007093   -0.18933436992851   -1.02772358506742
H           2.84806242568136   -0.49012877745434   -1.64992257160230
H           2.08056762649708   -0.90913724620607   -0.36258642578548
O          -0.22657492708232   -0.19288628771405   -2.09837375447688
H          -0.89435202960254    1.05730537706235   -1.77660911210351
H           0.69781136658035   -0.14221839014021   -1.73392583177133
H          -0.73052459219511   -0.75058426597293   -1.49097914863991
