    19
        -40.90738838
S           0.42210655234632    0.35545395177569    0.06809726564710
O          -0.09334865745005    1.37803379556023    0.93149811799274
O           0.28082930424162   -0.97693838158998    0.58586093989705
O          -0.21630806196574    0.47562895432266   -1.31977861435301
O           1.91976455115209    0.62739662246881   -0.26493080713616
H           2.37132763992416    0.60037300540816    0.60856302211916
O           2.10084948294383    0.36015015770824    2.32596312680141
H           1.36507560508556    0.97393904267684    2.43952198636540
H           1.72329198856997   -0.52479230663440    2.36685926674779
O          -2.40402212425572   -1.25303150990428    0.47250236743871
H          -2.62047663314497   -2.02811351838778   -0.05085714619341
H          -1.44251617790801   -1.28722567258279    0.62784582273083
O           1.72631755952323   -1.24351601227228   -2.56850213215396
H           2.46586556083598   -0.82313512165371   -2.12531094509155
H           0.95570015529580   -0.71101399517611   -2.35362204654604
O          -2.48647075819293    1.19249394867665   -0.56307953306139
H          -1.19054349769854    0.82907584462014   -1.17932228550334
H          -2.70786961583455    0.31614855021505   -0.16765995678057
H          -2.16957288117610    1.73907263610968    0.16635156856245
