    19
        -40.92078050
S           0.16185876834746   -1.02927369202211    0.04180888299833
O           1.12029850623230   -0.14780281276415   -0.59218058002082
O          -0.93802460787067   -0.13610070305905    0.69112011276439
O          -0.44084780956743   -1.98032769966885   -0.82903806564277
O           0.79221418993149   -1.70621406640090    1.25174176543019
H           0.89847413760196   -1.00039068372130    1.98949322232576
O          -0.38951793088506    0.30181117789354   -2.77713136767751
H           0.27783569190074    0.24206985778852   -2.07066499366230
H          -0.24020572068758   -0.46267976953436   -3.33829508824959
O           1.92903190873804    1.79260848952521    1.04971389931034
H           1.77407569495711    1.11286763544260    0.36446886088690
H           1.59538301282094    2.61852609926061    0.69463066802481
O           0.84899490912613    0.22035090262603    2.89417817655392
H           1.35661420696219    0.88731122187551    2.37558742482770
H          -0.07509393602669    0.48297346552518    2.84152754202584
O          -2.53781582176823   -0.16631703889783   -1.26935211655674
H          -1.68343557341674   -0.05715498757566   -0.00208214062314
H          -1.88671597976422    0.15103458659133   -1.93923769485447
H          -2.56312364636787   -1.12329197282639   -1.37628850796928
