    19
        -40.91893393
S           0.06276310693020    1.63030225617399   -0.58744266105253
O          -0.48394468091080    0.58193416999739   -1.42653747758952
O          -0.90749239101604    2.36076356748038    0.18824979956251
O           1.16562654510185    1.12110819486840    0.24194616575677
O           0.72695506080271    2.67848898766538   -1.57736484773628
H           0.71209946042910    3.48621956764022   -1.07287978429803
O          -0.44292757102923   -1.50096766080842    2.16360872042412
H          -0.29208176037357   -1.05881506401014    3.00135597467143
H          -1.12702065013060   -0.95949585959076    1.68446580773985
O           0.50989106504771   -1.79139311143878   -1.72952489510207
H           1.08013739032671   -1.78539119353645   -2.50045414938515
H           0.05254690178097   -0.91108679610803   -1.71402391792498
O          -2.05017076675937    0.06445791674924    0.80797808344778
H          -1.73483696961794    0.98844476365936    0.73600152407848
H          -2.12229301465593   -0.23051083607087   -0.10482170196826
O           1.49769377116796   -1.29638806186933    0.55560879025399
H           0.75165654706195   -1.48678284524401    1.24898611060986
H           1.16281565131980   -1.65571567481010   -0.34411705164773
H           1.43858231456041   -0.23517233083116    0.42896549020614
