    19
        -40.90688339
S          -1.29371342385632   -0.61940124975154    1.60294450105490
O           0.23769118881618   -0.73518861842814    1.38397237509394
O          -1.56117601030781    0.65584307056890    2.18921881327643
O          -1.99477365788274   -0.97902342250765    0.42014558642683
O          -1.53792846792263   -1.73447468694114    2.68211536608980
H          -1.33370695992415   -1.35857671094637    3.53683337134422
O           0.73475169608456   -0.50329488803716   -2.86070316577307
H           1.40973913288544   -0.55066586695446   -2.15408398128755
H           1.16112009798759   -0.10794228301451   -3.62239471348823
O           2.36078481227796   -0.35457966130024   -0.68039180453487
H           2.16077335863611    0.53380788918889   -0.36520195290836
H           1.97700357216402   -0.95935473716311   -0.03842196167253
O          -1.07148983899887    0.86312204054577   -1.40156127930735
H          -1.60287606630791    0.20305565298035   -0.92977930894148
H          -0.52928902305006    0.35639197221477   -2.04509528754021
O           0.51805235682831    1.58390816953777    0.47247418362646
H          -0.08100049541251    1.42782637196095   -0.33407012202841
H          -0.02792735251126    2.06643979989211    1.10154678355769
H           0.47396508004652    0.21210718834611    1.04245258701476
