    19
        -40.91930883
S          -0.44332430692297   -0.20161164168382    0.73205798981594
O          -1.22527482536054    0.99875233718100    0.56167946053120
O          -0.81220013388753   -1.33152469042404   -0.05443532936204
O           1.02754576250249    0.15635324646584    0.48328722163925
O          -0.48909824642083   -0.60460986727356    2.22885903845990
H          -0.52278455449248    0.23789259335263    2.75090407853361
O           0.07044570637988   -1.27773595578772   -2.66293279962230
H          -0.56832702298807   -1.55052617585928   -1.98976993713335
H          -0.00518990663194   -0.30609258626511   -2.68799399436239
O          -0.12089903053963    1.34428614453150   -1.91992883455393
H           0.73120387238769    1.69702037095862   -1.65338743157188
H          -0.67552055514571    1.34692723350377   -1.12600979287298
O          -0.85847315458375    1.83483345261688    3.04920894313280
H          -1.06132987531404    1.90303897871993    2.09819867623811
H          -1.67568876635404    2.01004536844758    3.52256743366838
O           1.99555793616532   -1.64907360144432   -0.95755564224599
H           1.75301293449205   -2.48415980614835   -0.54963767855026
H           1.37650977881481   -1.54237299034330   -1.74217704157706
H           1.50383440792037   -0.58144241054622   -0.08293437017653
