    19
        -40.92136405
S           0.18287953186783   -0.79004652790381   -1.12467755443186
O           1.14126093995510   -1.86716164315857   -1.14338412692468
O          -0.86671324883280   -0.94410020880633   -0.14269225163425
O           0.82719020696324    0.52935298966234   -1.00051842712144
O          -0.52451107265332   -0.77060643332431   -2.54608181434188
H           0.13298866049522   -1.12265409583703   -3.13933860194229
O          -1.29387792787822    0.99715793292626    1.56451967383723
H          -1.47220401509728    1.67652751352115    0.87713566318390
H          -1.37703082537261    0.15629609704494    1.05915535451753
O           1.34891098791640   -1.73682283242845    1.48016934666913
H           1.42128437736460   -1.90414273886626    0.51305325694338
H           0.50855192432650   -2.12379632525140    1.74121027143803
O          -1.34619051095899    2.09877122193568   -0.86106909022888
H          -0.50698307905391    1.63590118415984   -1.04474588904096
H          -1.99279837487757    1.72352589269475   -1.46122006105837
O           1.17466126199841    0.80896792631074    1.46843498896358
H           1.19044535024906    0.83851969229009    0.44204998747084
H           0.11123024867781    0.97883802911523    1.66538958226348
H           1.34090556483938   -0.18452766353543    1.65260971057523
