    19
        -40.91889811
S          -0.68286701823419    0.53403026889837    1.21967081992410
O           0.33051043093382    0.78374877063676    2.22375123550009
O          -0.37171751146728    1.25582338336519   -0.03290028293817
O          -0.94410865552021   -0.85606566673774    0.95766716574892
O          -2.01652336830824    1.18604102410607    1.76204395402068
H          -1.70257535830784    1.91927612176364    2.28262327740969
O           2.34843286184802   -0.58979677636072    1.32746434281350
H           3.14847622378396   -0.17475167189063    1.65705740173627
H           1.59250033090078   -0.14170633321150    1.78443650478023
O          -0.29617637859751   -1.82882601995814   -1.37833108841310
H          -0.62224029062269   -1.73355564667924   -0.45055586000338
H          -0.93027971135340   -1.28876538291495   -1.89681754559098
O          -1.73981817746035    0.28189351564087   -2.12995757271431
H          -1.38201267269736    0.72142020228014   -1.33328211063894
H          -1.73318069280855    0.93589941847279   -2.83030785561498
O           1.47094222931788   -0.14911616438585   -1.02240869970548
H           1.95554901038977   -0.41357264074662   -0.16461533711358
H           0.77937758261720   -0.99499981413557   -1.27351289418551
H           0.79571117568605    0.55302339184221   -0.70202546484157
