    19
        -40.91346189
S          -1.19470428915107   -1.62848637881206   -0.33878829472976
O          -1.02500668019847   -1.11767302839001   -1.76038452861059
O          -0.21342922895356   -2.62037502423207   -0.02720729212036
O          -1.28504941648431   -0.53377129214139    0.58743836023601
O          -2.60345164913489   -2.31823205024006   -0.39955753168220
H          -2.49164128918272   -3.14648411591145   -0.86198871195311
O           1.40079134076772   -0.50685276297857    0.82629280839660
H           0.43937435211150   -0.47985947692349    0.98048835834893
H           1.60844204176501   -1.44492902005149    0.77794180705578
O          -0.69806060777749    2.14589951862264   -0.01047033481961
H          -0.03421652799580    2.35454107780970    0.67398216409319
H          -1.20352714917668    1.39734666254611    0.33522756959602
O           1.48994664143904    2.17868652894796    1.64788858317309
H           2.28283263716448    2.62129391684740    1.34031592685644
H           1.64392736285545    1.22767277662362    1.55591634597844
O           0.71560995371951    0.62301337568579   -1.56849748104193
H           1.25191942981568    0.24719724412742   -0.84426854457322
H          -0.26359886104964   -0.35028014408992   -1.78320216248914
H           0.17984193858317    1.35129218281037   -1.13112703196077
