    19
        -40.92246918
S          -0.07773758967201    0.81331157746253   -0.69206404721783
O          -1.21002044408360   -0.02543355842507   -0.10536391486128
O           0.39358204999725    1.73633966300269    0.31407425093199
O           0.92898783908382   -0.02745048660802   -1.26595148711002
O          -0.78676333383110    1.59815388925800   -1.81730752230479
H          -1.41590755351734    2.19073987546324   -1.33462060952583
O           1.00346151273047   -2.69970998127529   -0.98186191861887
H           1.10661420163346   -1.75517346602780   -1.20580864616853
H           0.58379110828290   -3.11445556889282   -1.73734448631988
O          -2.07118525093440    2.79406051216436    0.10165282534680
H          -1.19538675507870    2.72071681110499    0.51470695637797
H          -2.61999655825163    2.11431016987417    0.50287944477721
O           1.79898681190880   -0.16792080095249    1.61277537887687
H           2.47953582072380   -0.38981736509036    0.97232266610935
H           1.39236010694702    0.65659412654071    1.29525663738974
O          -0.20884828806575   -1.84781847429598    1.21625209656735
H          -0.84189452268349   -0.86105751163872    0.50839028291793
H           0.19393395539165   -2.39575072253433    0.50146133140713
H           0.54648689941996   -1.33963866912246    1.60055075143271
