    19
        -40.90146317
S           1.15857866551855    0.33522495977510   -1.06853206929871
O           0.71034397961763   -0.55681877518328    0.10255930701656
O           2.49252531899852    0.02889386734261   -1.46166730887918
O           0.12455430873087    0.41522503480524   -2.04790805254129
O           1.21224541890122    1.75880338759134   -0.36072981945954
H           2.10107899998563    1.92491230947755   -0.05055419371444
O           0.13153526435651    0.26879619502512    2.68114415674555
H           0.52626212710003   -0.00448074910633    1.83849626575484
H           0.06555612129753   -0.52468240625649    3.21686665835470
O           1.06920423723369   -2.19812276883594   -2.27764468477460
H           0.53685088914948   -1.59869165198200   -2.80558812128751
H           1.91896401296952   -1.76557038378110   -2.15528768736675
O          -2.16136553936479    1.19868350460274    1.52637242937114
H          -2.87835591502949    1.16025258895473    2.16171040480344
H          -1.33421077423515    1.03332217496187    2.02131729456609
O          -1.72539242083557   -0.62396078163765   -0.34753579804649
H          -1.58776431978851   -0.20506799374444   -1.20937670785559
H          -0.33125587945859   -0.72823672302007   -0.03988982928093
H          -2.02935449519554    0.08151821099106    0.27624774595055
