    19
        -40.91892577
S          -0.18144090796329   -0.05113757540540    1.42285524729703
O          -0.14259787174164    1.24573061611501    0.72093193726588
O          -1.54313172754341   -0.48611629232240    1.64755635246703
O           0.65978510096854   -1.02014954917901    0.76533977013777
O           0.46035972951638    0.22185802912709    2.84197355410356
H          -0.22592600037001    0.66366669517841    3.33339392914938
O          -2.40612072570880   -0.96239961179817   -0.75560891608765
H          -3.34706975393082   -0.77412367360792   -0.77150916352761
H          -2.12521363501247   -0.89962127609828    0.19337871974353
O           1.37268869685585   -0.71780498995513   -1.87409886016764
H           1.15823147727950   -1.34039130041644   -1.16125178690280
H           2.04141371718873   -0.12583543624598   -1.46091095062960
O           2.54820911887485    0.75875946422822    0.01708269534965
H           2.04534129515315    1.56012856184541    0.18967523768868
H           2.09145940853091    0.06711053457346    0.52474056499799
O          -0.68350037101604    0.68562322710807   -1.63443331945216
H           0.17591797106039    0.10301170072598   -1.87744941682074
H          -1.43763933673120    0.01893663795101   -1.44725596883349
H          -0.46076618354475    1.05275423789875   -0.67440964696402
