    19
        -40.91887179
S           0.08373917300217    0.22665722568803    1.16375169971261
O           0.27016780676039    0.88318507679959    2.54441740313561
O          -0.29388475695131   -1.13695509264242    1.32113823059991
O          -0.80158595250808    1.03769390401274    0.36025954492097
O           1.50316694390395    0.34630314557447    0.56439428272285
H           1.56665720969416   -0.21187036232623   -0.29944447869842
O          -1.06722578031701   -0.50168375943790   -1.89253922062668
H          -1.50223646138755   -1.30222746451084   -1.53137029237787
H          -1.17823744769755    0.17312004689808   -1.20433924432488
O          -1.82000008482042   -2.60684972227743   -0.39076982453219
H          -1.38244917036980   -2.15264664735469    0.34983886684135
H          -1.35264013609684   -3.43654542409401   -0.50634944021302
O           1.46049467979970   -0.92342968962773   -1.61157098079007
H           0.47791435742772   -0.82783140609691   -1.81926311732299
H           1.93205748178487   -0.47018497934815   -2.31419092342049
O           0.50347867381790    3.16246230721968    1.32136779926982
H           0.41087486219039    1.84545401079860    2.35335277950613
H           1.33517384469867    3.17886068032932    0.84094907417347
H          -0.14546523290741    2.71648813040280    0.75036783142573
