    19
        -40.91971861
S          -0.15286560532863    0.66967437132322    1.23804884301783
O          -0.58657780030048    1.06068630431746    2.53784408681297
O          -1.29992461307508    0.92522362543394    0.25267281431540
O           1.07096254788238    1.21455543142925    0.73800269671152
O           0.00374393176070   -0.89544708225288    1.19032639022097
H          -0.83157765204392   -1.21354201262050    1.61885483877067
O           0.93558061323883   -1.71665761847655   -1.36813311127894
H           1.69839088812439   -1.14390295661914   -1.53129871904949
H           0.77977959658117   -1.69766505698859   -0.41588791657620
O          -2.31187604437555   -0.95671897002044    2.34034651137943
H          -2.98770308037039   -0.65126677558299    1.72911749235747
H          -1.94548797885020   -0.16134895807184    2.76456307879245
O           2.19102735954736    0.80094194210732   -1.63368279299460
H           1.86997352389082    0.99128805169951   -0.72884984905332
H           2.99629713898013    1.30796622691846   -1.74542440400102
O          -0.51939236214957    0.37762798534328   -2.06494844316207
H          -0.17804167561930   -0.54457801617114   -1.95777176855911
H          -1.01573320167890    0.73705396535610   -0.73789310411048
H           0.28342440298211    0.89610954281008   -2.22588664473956
