    19
        -40.91955059
S          -0.48249735600603    0.36959924279589   -0.99683469098445
O          -1.71530902264023    0.01799715559814   -0.37443135297514
O           0.31349557042358    1.34939422935562   -0.29398972433683
O           0.38574243134884   -0.87835710282437   -1.24242928788435
O          -0.73778540801165    0.86380659451737   -2.43493167949548
H           0.16207224130813    1.12521294230342   -2.75547118337346
O           0.07696191609132    1.27717221940683    2.41181705134592
H           0.25078480725547    1.35628911419419    1.45697775630712
H          -0.35238360884493    2.09284043199493    2.67631364708719
O           1.81374274418400    1.34077242524142   -2.52122484856969
H           2.24756484400219    0.48338275797086   -2.49674059777339
H           1.63454047184923    1.58620240936550   -1.59884086470415
O          -1.33844768370883   -1.00971832619228    2.12648421740532
H          -0.82297435642081   -0.25318771309843    2.47079459138371
H          -1.78892864084512   -0.66268564804687    1.34014504534225
O           0.33607503990040   -2.40006897498975    0.74659629235155
H          -0.11214114494612   -3.21709336631957    0.51514825065841
H           0.40242120533561   -1.52378166624543   -0.42208268218397
H          -0.27293404997738   -1.91777673596295    1.39270004075328
