    19
        -40.92085424
S          -0.31079094785963    0.04183280450257    1.38893224883009
O           1.01990918212877    0.51927222685224    0.75938186044640
O          -1.18666259028956   -0.40143847070721    0.33259215803300
O          -0.07398451479730   -0.91866135290479    2.41458367519921
O          -0.84828569847734    1.35161417566135    1.98912147800341
H          -0.85165796037675    1.99597421710888    1.22247392223270
O           0.64894671732901   -2.79728939382810    0.56029280424097
H           0.26617557378481   -2.25794305028249    1.27194795587869
H           1.33879645265471   -3.32807548618791    0.96598803043623
O          -0.53260740623034    2.71677519850704   -0.19772627086112
H          -0.66975577929400    2.09954160089857   -0.94638059492435
H           0.41525027082509    2.86818926134963   -0.15297163505603
O          -0.87378772796785    0.67251869243985   -1.99238679987299
H          -1.09593091028951    0.19599495928618   -1.15631010914005
H          -1.66176223266412    0.64528603213994   -2.53824335006923
O           1.38842404114582   -0.95318589119052   -1.24565820697092
H           0.67387264197201   -0.63194970592337   -1.81341425419202
H           1.27650671915263   -0.04978217371244   -0.06595876282997
H           1.07734418928814   -1.76867364398889   -0.79626414973484
