    19
        -40.90985787
S          -0.05465958337899   -0.42492573962448   -0.63272302512211
O          -1.28438580154335   -0.97412550493136   -1.35149956005351
O           0.03694227360098    0.99642738291685   -0.80399356884150
O          -0.06337751304635   -0.85686597546338    0.74352863278344
O           1.09562859259851   -1.13453144441648   -1.38485747852927
H           1.85837101051601   -1.22618197514129   -0.76611889398160
O          -2.22659231306300    1.96017740080472    0.29714818237728
H          -1.33715112841775    1.77646984856630   -0.05706162164097
H          -2.62349628386837    2.60933085130300   -0.28750264118471
O           2.79446346281237    1.50099818397433   -0.26699205042450
H           1.85854740136291    1.50945022139145   -0.49750170213017
H           2.95597603297892    0.69543463512753    0.23132929342909
O           2.54519515524731   -1.25512463602159    0.79724904436816
H           1.64395867514144   -1.13154831922943    1.14998739165912
H           2.90095904064688   -2.05864172575908    1.18481273862086
O          -2.89264090332825   -0.59367656014874    0.54142059951850
H          -2.06367568644659   -0.91062974135195   -0.67545767481167
H          -2.29065416945191   -0.87418380335019    1.23992647940744
H          -2.85340824058939    0.39214689721448    0.53830586537439
