    19
        -40.91198920
S          -0.24591945763866   -1.71930576015062    0.06753631744422
O           0.96934164137652   -0.96773494148650    0.14691455031625
O          -1.40944655337483   -1.12496805399722    0.64765417446016
O          -0.50094058806009   -2.15535427574020   -1.37106717151852
O          -0.00021935501159   -3.09318556034910    0.79117892935350
H          -0.85404607746473   -3.49645384950522    0.93758164851987
O           1.42960157465544    0.89117826258813    2.04418030398335
H           1.24941946354887    0.16770875904884    1.41622947026962
H           2.38188697866876    1.00661558270004    2.05370811003611
O          -0.04683271628997    2.77486834318900    0.78878179283390
H           0.51149862566174    2.14201725556818    1.28784823736920
H          -0.66603939126109    3.14146304484564    1.42220542447346
O          -1.31520833120598    1.12794618942198   -0.92513226970043
H          -0.86080885251417    1.81247461818544   -0.38522514136630
H          -1.56666567429613    0.42599472610539   -0.30804522413490
O           0.30353259786207   -0.10331088125126   -2.51405566829732
H          -0.35018502705912    0.49923178421191   -2.04531976685726
H           1.14691969520134    0.03233705686483   -2.07052557567182
H          -0.17588855267185   -1.36152230059485   -1.98444813085028
