    19
        -40.90958712
S           1.33845741066632    0.41452331098322   -1.29027832491928
O           0.14060612067169    0.92942690601448   -1.88864818005158
O           1.41515037124853    0.83010721679529    0.17601029534634
O           1.57697978735380   -0.98468159919631   -1.44055806748626
O           2.55499434457447    1.19247449592309   -1.90394579463540
H           2.27445153277578    2.10283267056615   -1.96316954614098
O          -1.97325351905530    0.05880275357079   -0.45034619166519
H          -1.35072115540862    0.36240817114788   -1.13516199492267
H          -2.25556269569016    0.86047318493013    0.01780104173555
O          -1.91956957400479    1.88767324694218    1.64585658873560
H          -2.55127759122194    1.81051701848080    2.36338284321099
H          -1.12483340849538    1.42004094002717    1.92310868522701
O           0.78709073389542   -2.82624759963085    0.35398508821299
H           0.19611068877807   -3.42097266457283   -0.11236889318479
H           1.22755134792218   -2.28953504284243   -0.33124165345383
O          -0.22119301429896   -0.59386807475841    1.36009015884938
H          -0.98657915979518   -0.48074899647516    0.72367709922394
H           0.13098845368814   -1.50052258597768    1.19385009932117
H           0.74060934175800    0.22729665178742    0.75795673639031
