    19
        -40.92136402
S           0.07724911894138    0.90514107493932   -1.04731650538487
O           1.30847633692555    1.57962660797507   -1.37580811989385
O           0.13707193733171   -0.53431366730090   -1.16646186877015
O          -0.44184695235907    1.30075394006570    0.27385795173961
O          -1.01778286193568    1.40098008731911   -2.08471807348809
H          -0.73614530608448    2.28065766704832   -2.31939576988593
O           2.64581047038575   -0.11503050971851    0.13589511785722
H           2.61217547740203   -0.90300995382410   -0.41369025082285
H           2.31240885744690    0.61326140147178   -0.43582549849826
O          -2.58315988140611   -0.30929744379237    0.43887178839000
H          -2.96296178270167   -0.35133824029114   -0.44036058920985
H          -1.92057128145217    0.40664485893173    0.41295718785511
O          -0.57318559165850   -2.00043942997518    0.88472852874424
H          -0.28729021033756   -1.71938648271393   -0.01470069605004
H          -1.48151958552547   -1.62985914389153    0.94416259432513
O           0.78536280149820   -0.18442351388053    1.88139377765790
H           1.65231967195574   -0.21431659792916    1.33740525153145
H           0.25699249948986    0.54961590470730    1.39537336649938
H           0.21659632208676   -1.07526655914014    1.59363178740203
