    19
        -40.89638699
S           0.83756569406735   -2.08823536424732    2.01939656978848
O           0.36627097103421   -2.31422539835377    0.68367117011315
O           1.23022132879332   -0.61399276753347    2.19373538355125
O          -0.00087116410233   -2.52673996843285    3.08271914260543
O           2.23490301965240   -2.78587861326943    2.16206660597259
H           2.69942630614650   -2.62665880397424    1.34306838114882
O           2.91918949005426    7.30792422833801   -9.37761633860611
H           2.34012681390929    7.13990549292748  -10.12350621767101
H           3.41195781243840    8.10679074988350   -9.57509105969889
O          -2.44875366200801   -1.36308691276806    2.72548120100413
H          -1.76064559940166   -1.94064129086339    3.09093984687158
H          -2.63931505980705   -1.73251395570413    1.83839016427729
O          -2.30584913352305   -2.28114831389869    0.19683456055868
H          -2.41907959038118   -1.65973510354124   -0.52491615251643
H          -1.34591224826345   -2.41655996174902    0.29087690395439
O          -0.92768174068822    0.66368510039305    2.27812287540525
H           0.37139008909437   -0.03542587035980    2.20300276029793
H          -1.60961908500752   -0.06586833165801    2.44157691983042
H          -0.95332423599422    1.23240508035912    3.05124726161412
