    19
        -40.92122925
S          -0.03623816944276    1.07556835597075   -0.36584580305048
O           1.08036619229465    0.05872597042774   -0.73020426557957
O          -1.01950132260553    0.38419329373859    0.43604246338341
O           0.52677380074426    2.23452981458869    0.24966167912737
O          -0.61331020821678    1.43040682146846   -1.72968556073271
H          -0.95641508292478    0.58353594292203   -2.18877581501947
O           0.42661334279660    1.14414122953361    2.70704437441957
H           0.51767224143083    1.81176085637071    2.00485075283709
H          -0.44720569412152    0.76495919216037    2.56518594819171
O          -1.51301873958247   -0.73557386016118   -2.71211806919135
H          -2.46859456391005   -0.68003010061323   -2.78907956513280
H          -1.32759103719618   -1.38008625358947   -1.98069860592167
O          -1.01552017791517   -2.09340847385140   -0.51246252396003
H          -1.11002191230157   -1.26134558687266   -0.00571295236089
H          -0.10350547944363   -2.37179975313339   -0.40300216065554
O           2.07221581386924   -0.54124395616528    1.54440483187045
H           1.48731256527211    0.01658784195085    2.12457345682089
H           1.53557130998265   -0.23433879946295    0.12417853685353
H           2.96439714405580   -0.20658252192844    1.66164327811447
