    19
        -40.90846855
S          -1.15628290009186   -1.66755132680532    0.25168319461082
O           0.29063839517834   -1.55560632152290    0.77181274877792
O          -1.75940543964774   -2.88066916830413    0.66571378826900
O          -1.82824896146065   -0.42767854850743    0.50221193016435
O          -0.92772447388520   -1.74460333198229   -1.31063042144347
H          -0.79220529199955   -2.66039316620791   -1.54188373323582
O           1.71163808449109   -0.23078679825267   -1.31315720535081
H           2.08678412154050    0.52383384759856   -0.84735706550652
H           1.45406391560459   -0.86655160913562   -0.63617358236085
O           1.10705166150297    2.20767481248633    0.32232339990177
H           0.42801453983547    1.96141055853784   -0.36357011505983
H           1.05823690817657    3.15837859333296    0.42865797525951
O          -0.66026472548313    1.22662531903585   -1.35330876681564
H          -0.03876384054625    0.60799675880843   -1.76968734404841
H          -1.25095225163361    0.68539635303071   -0.80633520463369
O           0.14785092556479    0.53254553533341    2.11065278790062
H           0.60140979154696    1.21266269472817    1.54416956596836
H          -0.79892429331221    0.62979144030102    1.94039427699585
H           0.32708386449723   -0.71247565240604    1.40448379059382
