    19
        -40.91469026
S          -0.64891262738325    1.06909581466862   -0.58344786860766
O          -0.59860927404094    0.54065185824631    0.87560804434104
O           0.01419554079827    2.32349844569969   -0.65246288538161
O          -0.15248396489985    0.02752143022102   -1.45182132827400
O          -2.16299097774209    1.23581391160657   -0.83280319677102
H          -2.51934620584287    0.31977984909095   -0.97581578086997
O           0.64669714338947   -1.96302286269648    1.37589562798646
H          -0.02705907309849   -1.28365302501225    1.23907994799145
H           0.81390580434550   -1.99904320251175    2.31977519121528
O          -2.44959577496184   -1.28697546798257   -1.36803183445958
H          -2.80899029033915   -1.54829299134238   -2.21961582226869
H          -1.48900933989848   -1.17149302472201   -1.48858441233964
O           2.27435444940455   -0.40751800506677   -0.20541349418630
H           1.94584277492278   -1.17273407448905    0.29971610787306
H           1.60745634329049   -0.26581363413207   -0.89324318253478
O           1.62771385796872    1.50257342909982    1.46297561587463
H           0.27753130568487    0.94634453575245    1.27985747907112
H           2.10354822848693    0.83528937471833    0.89503552924203
H           1.54575206996939    2.29797764877061    0.92329627206162
