    19
        -40.90980961
S           0.01537571810951    0.75543145072084   -0.53588639613111
O           0.94497110151459    0.26112320691055    0.59512119909852
O          -1.09369415833924   -0.16588833697133   -0.62658035089617
O          -0.33407663758363    2.12303881525005   -0.34999682038735
O           0.90247028262297    0.62450132419354   -1.78874191473242
H           0.98758397200381   -0.33328562307221   -2.00364387560501
O           0.30417750454754   -1.93973100514425   -1.98019620983312
H          -0.07693863105072   -2.29485447439269   -2.78649888158878
H          -0.42292079288954   -1.54313096562476   -1.46287973649787
O          -1.63450604237117    2.29843705265897    2.01259471116488
H          -2.46263739061368    2.77298795903140    1.91888314993344
H          -1.14521245846142    2.42454085435183    1.18006308778613
O           2.83033763345553   -1.66229745266740   -0.57274398464067
H           2.08943097421096   -2.10520516550688   -0.99645794537085
H           2.45825670538805   -0.98346432071267   -0.00235393346945
O          -0.93853028145888   -0.27095839637499    2.18197223952088
H          -1.24793156069823    0.64069328366189    2.37422481344960
H          -1.50339346737635   -0.59886457979251    1.47209044125561
H           0.32723750896034   -0.00307362647347    1.37103038692878
