    19
        -40.91628507
S           0.41252964409042   -0.26810619746986    1.18853226092256
O          -0.61287594132074   -1.20603778541375    0.54346601640174
O           1.42902083432130    0.04828912939669    0.20893561357481
O          -0.24127627065796    0.85070135810346    1.78537178763628
O           1.04319247147547   -1.11962066803437    2.31490596248936
H           1.73651148059043   -1.68560506002312    1.89003197041898
O           2.90262425951985   -2.07154292088653    0.76433481536813
H           3.80947916915900   -1.88429786484675    1.01852078783539
H           2.57688315770710   -1.29423168066942    0.27221002937359
O          -2.08903080455541    2.17662218031167    0.36807034641297
H          -1.89109776661729    3.09960165265205    0.53883767877937
H          -1.49028540696361    1.66487209545941    0.94546442972197
O          -1.91318863360357    1.24710977386104   -2.13510562198316
H          -2.79837964306470    0.95895452007069   -2.36517430463888
H          -1.97973791698875    1.62778376334242   -1.23037788479812
O          -0.18942048137814   -0.72738127523273   -1.87236261655841
H           0.64694701064081   -0.29173985835823   -1.66485419608698
H          -0.51867505370342   -1.12518550633698   -0.48931169056849
H          -0.83322011867879   -0.00018566591191   -2.08149539424542
