    19
        -40.92079119
S          -1.38753879619079   -0.52537549889892   -0.07722184316541
O          -0.70612334604124   -0.00696561422186    1.10077667117804
O          -2.21851908698595    0.43803774708399   -0.75210287624890
O          -0.44519492138472   -1.18637126607130   -0.98223953520298
O          -2.33979480474313   -1.66600073208832    0.46759426724767
H          -2.86533658330956   -1.89640883245952   -0.29219834950518
O          -0.43253737302034    2.05432893029833   -1.83926467269450
H          -1.13609730881251    1.44270187349365   -1.53122743052738
H          -0.86906829897326    2.88495733255896   -2.03766950896373
O           1.27764746586413   -1.47213049866025    1.99411236084457
H           0.42001266437901   -1.02553565446086    1.79953349543469
H           1.63689416565863   -1.04610340570628    2.77496925750337
O           1.22559108897884    1.56525558443485    0.15046900225420
H           0.49174664251342    1.21664299368566    0.69612585345303
H           0.77624624945043    1.90296979796376   -0.65964477511584
O           1.91943036393615   -0.76874564433631   -0.38183221985789
H           1.88728030449076   -1.16525210824736    0.55197486427843
H           0.96904630165874   -1.02466166599108   -0.75947337224383
H           1.79631526253375    0.27865667161639   -0.22268119867021
