    19
        -40.91010053
S           1.01975247380652    0.96473128582250    1.49477067008153
O           0.97615809590595    1.79206851997697    2.64385529389698
O           2.44637593777781    0.66506375402369    1.07237057421473
O           0.24469289117118   -0.24211507631474    1.47942310214894
O           0.46105493035194    1.84075838043158    0.27239061703158
H           0.63366914346550    2.75117222663264    0.50163732871550
O          -2.35347148505053   -0.21747670097102    0.83096222543542
H          -1.41440256649725   -0.18260362708871    1.09630166352477
H          -2.79201086127351   -0.76731727925853    1.48321216238247
O          -1.97628581232933   -1.15137045674213   -1.67046352825751
H          -2.18136156551843   -0.83987690430914   -0.76279086700286
H          -2.67726012152495   -0.82297362956283   -2.23548066531087
O           0.42763165649914    0.01481353486093   -1.95164674318480
H           0.28685541250334    0.77958305570416   -1.38345360499400
H          -0.42114518200293   -0.48181507637172   -1.95154499998916
O           2.03580395373584   -1.30013483944220   -0.38976316485978
H           2.38975972070349   -0.17682645309415    0.43464299872877
H           1.38840392598606   -1.75436825168915    0.16068805225266
H           1.50577945227687   -0.87131245257328   -1.12511109482168
