    19
        -40.92343653
S          -1.63054658086402   -0.41045076637899   -0.13634279794449
O          -1.52977235719043   -0.66580178983244    1.30135130030953
O          -1.72666792754075    1.00400113590358   -0.42797294711450
O          -0.55961160676970   -1.06115800486910   -0.87448649034571
O          -2.97045280399587   -1.08843812740873   -0.61290446921374
H          -3.62947866028041   -0.63498764280967   -0.09657857761647
O           0.56039330365404    1.97486296717948    0.39166577596509
H          -0.37811953613555    1.82647883225914    0.12508031716356
H           1.07388396625634    1.65995414682312   -0.38142156847284
O           1.37666208065240    0.54133924868418   -1.72890244835363
H           1.24016488361231    0.90420986133790   -2.60507317150654
H           0.60934615860797   -0.04663660027468   -1.55208888438497
O           1.78544501850433   -1.52075447971174    0.31366229254277
H           0.92121722213149   -1.63954393624195   -0.13260316984473
H           2.32694239581352   -1.03189844063477   -0.31588205174510
O           0.73656366142746    0.07575218593973    1.99564075888707
H           1.29379261979689   -0.59976595832795    1.45753072228490
H           0.74404106094961    0.97543764589198    1.41824236068916
H          -0.24380289871793   -0.26260025743089    1.86108304868254
