    19
        -40.92136405
S           0.24115108837165    1.34928367848704    0.20984565980930
O           0.93473729862208    0.31364623766609    0.99610784986274
O           1.14514970713454    2.09608897405135   -0.62917413529283
O          -0.89463484430897    0.79026387677795   -0.48802160990336
O          -0.34043874594693    2.36186195612984    1.28577205126705
H           0.34842851490629    3.01188631847049    1.39148153888008
O          -1.16433176946526   -0.83230994211817    2.21577595718882
H          -1.77299399925505   -0.12497194696083    2.43583599637798
H          -0.33595653649656   -0.39840395080620    1.93684515083414
O          -1.37639638230275   -1.77584381206996   -0.26739150486816
H          -1.46197080882689   -1.76242388393444    0.71148738267076
H          -1.45526376030022   -0.82269303960059   -0.50112039148929
O           1.13387449082479    0.13779884088305   -2.39274595603136
H           0.25737602244756    0.24924333513555   -2.77150293765545
H           1.28072327408593    0.93935166690735   -1.84096881296598
O           1.07973406371936   -1.64364183200405   -0.56618488761446
H           1.18524241092843   -0.93685756925573    0.17166809532337
H           0.01276541250780   -1.87335027840133   -0.48370350254486
H           1.18280456294573   -1.07892860858056   -1.41400594483746
