    19
        -40.91974969
S           0.50908291026137   -0.63435694121559   -0.23163024112997
O           0.40527240732648   -1.46538164015519   -1.51242350284934
O           0.64972191095692    0.76937145383351   -0.56073861076163
O          -0.61177135271364   -0.90453341060372    0.62562131542071
O           1.81831007446172   -1.15049839089843    0.37067657390400
H           2.04834987116951   -0.66201504989705    1.23702785460302
O          -0.04174568544422    1.44027208962256    1.97628350701798
H           0.16162723868660    1.58405657347811    1.03890389240880
H          -0.64942444764059    0.69025102548258    1.97302357324318
O           2.25648807729803    0.25178288948271    2.45008427715035
H           2.95694115474725    0.88792237317704    2.28607209632963
H           1.40457627700371    0.76118560579644    2.46363309297111
O          -1.61402771621875    1.09136646887649   -1.99031364112258
H          -1.41481251030349    1.47328086988785   -2.84761658681286
H          -0.78595720764961    1.11659155880762   -1.47672059950552
O          -2.11553593865593   -1.51340982329235   -1.61554951505010
H          -2.18878540792131   -0.56382114631415   -1.85390225630571
H          -0.59549561292075   -1.62710347282483   -1.67898448018754
H          -2.19281403243348   -1.54496105318438   -0.65344674938532
