    19
        -40.91103733
S           0.14054195140494   -0.83587373255574    1.27275676489590
O           0.59241396573831   -2.12655916990821    0.79326370378557
O           1.10199719144205    0.21846569635549    0.88534529093325
O          -1.19992903503207   -0.49936078563217    0.86609690052881
O           0.16528677933583   -0.87281448058454    2.84180210908915
H           1.06256290882581   -1.10939575842670    3.05767317920487
O           0.46642367059948   -1.89785594877854   -1.77261859306746
H           0.45032784783136   -2.09634212320901   -0.79614689672471
H           1.15901119611121   -2.44813867547103   -2.14560746323987
O          -0.14447433467661    2.71740247483748    1.22352344287153
H           0.35298739020782    1.89073572435484    1.25789690970116
H          -0.84309068924927    2.59020876756688    0.57708836837306
O          -1.63189054135789    1.22684696778449   -1.00066187017032
H          -1.59539546596045    0.61398867618939   -0.21828399632482
H          -2.36602875663604    0.93120706872015   -1.54271097568835
O           0.76724469299548    0.59632896289975   -1.52973052075910
H           0.67428425549467   -0.39998012309477   -1.78996443345436
H          -0.18965619974737    0.97111862420441   -1.47756969146352
H           1.03738318327166    0.53001782342050   -0.50215222870368
