    19
        -40.91469036
S          -0.31276027116343    1.31867129333257   -0.26146419826506
O           1.06861182258015    0.91464417178680   -0.38010417249846
O          -1.18101782442014    0.03518700655256   -0.16687240436321
O          -0.63070714430789    2.18264652941865    0.82042429665533
O          -0.76088319209075    1.93433874526096   -1.60387346619503
H          -0.32662175503890    1.39063323839545   -2.31306506031966
O           0.12843439669790   -2.47654479108241    0.03867350809724
H          -0.53128167772401   -3.10878456575061    0.33070329961620
H          -0.35248156283832   -1.71708064160696   -0.31655677154542
O           0.80137432504270    0.36622881106119   -2.95673687358473
H           1.19559097487154    0.30976173882821   -2.06666569891363
H           1.46578390893110    0.75217168230297   -3.53301863444707
O           1.20838344519149   -0.70850735251142    1.85018732821473
H           1.06615635649357   -1.52506295838003    1.33891626501483
H           1.43020388827582   -0.04070223822416    1.18473709106748
O          -1.28447567212840   -0.06811699492221    2.32385982741110
H          -1.37112043757877   -0.08733960788939    0.85540776950162
H          -0.33223666581235   -0.35761077832736    2.38564020791080
H          -1.28095292433932    0.88546669380321    2.46980769662714
