    19
        -40.90608607
S          -1.57661134672281    0.96844750681462   -1.05447222247178
O          -2.14624894852106    1.27771244524469    0.33246324838820
O          -0.52185877176518    1.89655939346801   -1.36015475985788
O          -1.26030219789905   -0.41225838697904   -1.19527775663434
O          -2.79825884489235    1.30181552439606   -1.97144226531855
H          -2.89382407436793    2.25189743442927   -1.96495691808139
O           0.64459421273365   -1.35208111769768    0.48302697619068
H          -0.03467236145668   -1.28715902072652   -0.20936914154484
H           1.30234650714066   -0.67431431360223    0.26090141781738
O           2.31714248282834   -3.61140723810845    0.12251201111004
H           1.85253343955488   -4.39398603045638    0.42218256543782
H           1.72437659306044   -2.86412326423130    0.29324955380246
O           1.60420493398930    1.25213850512554    0.11956117530463
H           2.42890810078253    1.61127757931540   -0.21254110060006
H           0.90359513647220    1.55003787968009   -0.49373845676411
O          -0.36787034915703    0.60631190927688    1.96471862931613
H          -1.46484347192195    1.00764242813329    1.07632238252266
H          -0.10119480857756   -0.29257671659551    1.65742956232468
H           0.38798378968652    1.16406548161201    1.72958509859109
