    19
        -40.90815067
S          -0.32342372772634    0.54302888222480   -0.17456660991379
O          -1.61169609370592    0.89263967992981   -0.66919285526877
O           0.03750114790203   -0.85014034125543   -0.27451795387493
O           0.76097466400564    1.39828338930825   -0.86835215695737
O          -0.15912888346277    0.98468088718462    1.29787906692795
H          -0.90675159231368    0.57623751521214    1.85771545193229
O           2.74432123352128    0.31384004444266   -2.97848919327797
H           1.99574594328062    0.89513589622795   -2.82906854724298
H           3.00250539315824   -0.03557751000095   -2.12098546689380
O          -2.63026337192396   -1.45762175987292    0.23515714030773
H          -1.78150218535579   -1.86333613266965    0.02237246171270
H          -2.66226299638618   -0.66203252358460   -0.31670611312629
O          -2.13416039394803   -0.12142583815496    2.45256627133759
H          -2.85754205084173    0.49944188192690    2.56952893341535
H          -2.41177525189735   -0.74412540140123    1.73111153026959
O           2.60326243308885   -0.26246080745967   -0.06296096400802
H           2.89819714544251   -0.27070369281806    0.85071678839701
H           1.80980714857294   -0.82986167771294   -0.11600298384064
H           1.62619145851579    0.99399749848580   -0.60620481981365
