    19
        -40.91624671
S           0.30686580235261   -0.86568929778153    0.01095888114268
O          -0.94480363621980   -0.24584117895975    0.66033449304058
O           0.25535790998876   -0.61881160693429   -1.40881634094535
O           1.48142921835266   -0.40828484634008    0.68197006890934
O           0.13462050131787   -2.37345607737589    0.28526946105980
H          -0.47971234100123   -2.72234342186148   -0.41271516114471
O           1.22523410774726    2.43019058353806    0.31213952451722
H           1.03047249035141    2.37129165012179    1.26689220197357
H           1.75493856664146    1.64570767502606    0.13000688471609
O           0.59522431893886    1.26532882023938    2.69316054590894
H           1.05350226363486    0.55007623721733    2.22634317245405
H          -0.32741567654902    1.00377475475448    2.73563632321209
O          -1.20748991914126   -2.76677472750353   -1.89693307121265
H          -0.78919713884018   -1.90155773905723   -2.06429488092625
H          -0.83924484322116   -3.38642960654496   -2.53172171036995
O          -1.06525486263364    1.79328664495750   -0.78282134155580
H          -0.79530859405364    1.37450399342082   -1.60726387401674
H          -1.14294012151179    0.62294896865292    0.12427145553800
H          -0.24627805583795    2.23207917487078   -0.42241663270119
