    19
        -40.91106597
S           0.02112849970555   -0.68013121690522    1.62680817652469
O           1.36285303102681   -1.00311793243116    1.98699776253073
O          -0.06658283044772    0.81205440220411    1.27395928220831
O          -0.61128882020887   -1.46800165216758    0.61658449600702
O          -0.88569795324523   -0.76157507306034    2.90829704778042
H          -0.35405229692029   -0.52090736374156    3.66481660152160
O          -2.25288201189382    0.40483396673066   -0.50923874064461
H          -1.88732831031928    1.07261423699597    0.07845658244687
H          -1.90185400429816   -0.43791351692344   -0.18163814574392
O           1.11679139722080   -0.81317172197246   -1.48550085111812
H           0.49758912848939   -0.38278079282042   -2.11586839973230
H           0.55822782737903   -1.32922757812473   -0.88895865184094
O          -0.81117495096454    0.51271204939075   -2.80163232537572
H          -0.74095150895533    1.43195424787321   -3.06236549659670
H          -1.46962744554959    0.47290564766991   -2.07654170700490
O           2.10040036469647    0.94577093688709    0.10803296169305
H           1.84152071695798    0.31102813485576   -0.63485923412501
H           0.85958298710223    1.01727655782767    0.77187170730711
H           2.62334618299606    0.41567668035671    0.72077892671104
