    19
        -40.90993995
S           0.32656366275456    0.71710461834238    0.41674345114383
O           1.53373951072211    1.30153955114116   -0.06141996453422
O          -0.74947353073821    1.61011911443046    0.73182685184144
O          -0.18765005218446   -0.33810787533117   -0.61694642402757
O           0.63571157010836   -0.18945865122595    1.62866687868395
H          -0.15758362645671   -0.81419172922916    1.71841330293372
O           1.36757257966460   -3.02486250349971    1.54612790306599
H           1.78704200870888   -3.39327489421494    2.32633614994939
H           1.64417727899345   -2.10297459608733    1.48692525865759
O          -1.29551858461416    2.86203812052200   -1.57030196290749
H          -2.24828009713761    2.91770102532019   -1.66579331801710
H          -1.12712428733604    2.55641210298226   -0.65739521747010
O          -1.15215618582285   -2.00262261106438    1.46284921827255
H          -1.35589623833664   -1.83766610202436    0.53594093023680
H          -0.44883192343123   -2.67977841288560    1.47198577046690
O           0.42049908465742    1.10100888701573   -2.60148833132712
H          -0.23025669060225    1.82297576191077   -2.45309056432959
H           1.23393885824211    1.40232941785170   -2.17707694671677
H           0.00352666242565    0.09170878664593   -1.52230300581349
