    19
        -40.92158945
S           0.39246957199548   -0.66891882575123   -1.25613778413647
O          -0.29241394445915   -1.43386364608026   -0.20550554589381
O          -0.42611854842103   -0.48944544326538   -2.42409279810297
O           0.96555981488525    0.55180967449090   -0.70961477388109
O           1.63864764281061   -1.54526336910011   -1.69249487870961
H           1.28193332410419   -2.15977366816764   -2.32658791766526
O          -0.96846301452075    1.73359646775729    0.69807529116285
H          -1.72560837262500    1.39167230693777    0.16578215720477
H          -0.20595328915580    1.63815723279183    0.09398966033091
O          -2.48084660307828    0.30177505656798   -0.92656968290953
H          -1.82936886408657    0.08312124688856   -1.62130863519615
H          -2.74043972389645   -0.54133309280698   -0.54766216922669
O           2.22592199849068    0.27904304073696    1.56906287642041
H           1.95120884424499    0.35368646538635    0.62475221067148
H           2.62476054743567    1.11867564862420    1.80645190301133
O          -0.23738550508608   -0.27130828434494    1.98120576859123
H          -0.29772195969513   -0.88521784924801    1.12553949421142
H           0.76050420960793   -0.09928467089215    2.05558904873791
H          -0.63668612152376    0.64287173032593    1.58952578652276
