    19
        -40.92219814
S          -0.23944533566814   -0.11937695116277    1.47132415750229
O          -0.13242146484042    1.23234443518427    0.73212061083979
O          -0.02945054195580   -1.18436679791329    0.50255311320900
O           0.62151098314583   -0.17251938031303    2.59681371826848
O          -1.71448708424866   -0.11741448286028    1.89450037330366
H          -2.21881346083904    0.08261798551486    1.05219543981725
O          -0.62742528420853   -0.53001254499134   -1.93876264894258
H          -0.83307759253996   -1.28119168817725   -2.49850183465826
H          -0.37933944111921   -0.89607578048210   -1.05707789445603
O          -2.63261223606912    0.57804445332768   -0.42962314750452
H          -2.46505668206648    1.52370115906113   -0.39562230957387
H          -2.00892587224889    0.21885252068174   -1.09374666824285
O           2.63818080703676   -0.79787159280548    0.56059870697630
H           1.78405566647993   -1.25677258509918    0.56679740982646
H           2.76624384231681   -0.49897426433882    1.46516689989754
O           1.59963224688588    1.03567861088216   -1.07910164289411
H           1.07174118679894    0.54155519546382   -1.72303414538761
H           0.60513750164772    1.24880452891140    0.00311745711441
H           2.19455277970882    0.39297716775344   -0.62971758600158
