    19
        -40.91059525
S           0.71669343742880   -0.02068368734977    0.59270473168134
O           1.24807334931594    0.95470230883439    1.48495119975962
O          -0.48517996549378   -0.68919689635215    1.02664023691418
O           0.43305311088367    0.60957485615104   -0.79057145101524
O           1.80527817801246   -1.06426830508656    0.27253182666981
H           1.36169082233853   -1.84018298044527   -0.14610406202922
O           0.67009388306938   -1.44160216195562   -2.87908147726759
H           0.31170212114929   -2.09986592036112   -2.27641069407282
H           0.67733515323474   -0.60597437090155   -2.40303078978836
O          -0.50552920016327    2.98121870103527    1.76480216580469
H           0.18301897761776    2.29568954969582    1.84888846038060
H          -0.04700297971802    3.81063733911396    1.61466703327868
O          -0.00909690237847   -2.83721986665049   -0.40627836592584
H          -0.49145945327654   -2.19468453653339    0.15078230188994
H          -0.05988346375530   -3.69100979931235    0.02987411387091
O          -1.77067553854106    1.62108838806029   -0.12162439577687
H          -1.45852719610464    2.26635024124641    0.55781579472907
H          -0.47541622920901    1.08183529646801   -0.69131950799233
H          -2.10416810452665    0.86359183440489    0.37076286890912
