    19
        -40.92079052
S          -0.48712038942856   -0.76354625707624   -1.17788617287198
O          -0.97639363315161    0.52111489125543   -0.69680741308006
O           0.48550839232114   -0.66822432060583   -2.23579758056968
O          -0.02959463554956   -1.60104213912281   -0.06756577003306
O          -1.75926962008826   -1.49006254462087   -1.77673571762369
H          -1.39203050965228   -2.25025701668198   -2.21690511171729
O          -2.23346380176138    0.46198488682492    1.60433449755638
H          -1.95187993955656    0.46950187553775    0.65903334171609
H          -2.52191402736599    1.35328876289449    1.81064717158915
O           1.03387239006230    1.54234682459989    0.72605906619543
H           1.79486149219699    1.17788442773941    0.21609470523992
H           0.27765234547594    1.45482548163157    0.11107060703477
O           2.60500447733311    0.26326466703277   -0.96069495078600
H           3.19329451929758    0.65112440031040   -1.61126490340673
H           1.87882136199197   -0.16079586534093   -1.46731770546934
O           0.14517894122880   -0.36139249938787    2.06760533768094
H           0.63689289133520    0.48651558964952    1.64810773372046
H          -0.82679483191534   -0.07564713436444    2.13061633165382
H           0.12737456730592   -1.01088402006797    1.23740653321714
