    19
        -40.91855631
S          -0.39237035812939   -1.08624317302248    0.14893527488617
O          -0.04194848060145   -1.20930421049815   -1.33520297380034
O           0.64707754578362   -0.32719459361110    0.81666194438280
O          -1.71408208220757   -0.58943270868512    0.34277813451292
O          -0.31827768572878   -2.54916340811178    0.63124119043887
H           0.64819693593700   -2.75869047286453    0.69811338199154
O          -2.26467989961242    2.04503840415098    0.73470986143873
H          -2.22160150483487    1.09245285467125    0.53958810117166
H          -2.62435584416827    2.12278041488272    1.61991534712387
O           0.31555777183427    2.24637615487485   -0.04956924423941
H           0.57359061591140    1.43960826704559    0.42470041371201
H          -0.60580866068348    2.42057429611202    0.22694213688526
O           2.25713835528758   -2.41697050404049    0.94611276105334
H           1.99012418956628   -1.47866940049805    0.93569252828747
H           2.59701515166711   -2.60234327309059    1.82515539853481
O           0.09657181354136    1.08590317008600   -2.34953279421474
H           0.92340301565829    1.19485060117213   -2.82517989210962
H          -0.02753290671829   -0.28738502723470   -1.80698330582884
H           0.16198202822595    1.65781259774481   -1.52407826405337
