    19
        -40.92343602
S           0.69031853421698    0.83705192013860    1.29201858282243
O          -0.62737115060169    1.11934616671158    0.74522271727720
O           0.80041522994785   -0.51027276779476    1.80955744328752
O           1.75109352032552    1.14095521049472    0.33060945107123
O           0.88931982144001    1.82891832174050    2.49975979832376
H           1.75667643876372    1.59889883716205    2.81803562102190
O           0.42458824590130   -2.02439124439695   -0.29035392468626
H          -0.54869054823755   -1.91091453522547   -0.31083839336729
H           0.68691765229483   -1.63802742910784    0.57913372685630
O          -2.04204600212364   -1.00385752095558    0.01215098192873
H          -1.60371507854241   -0.21687112560875    0.40499486649652
H          -2.60572122753842   -1.36645659305504    0.69686270386619
O          -1.03038570242879    0.98395004260205   -1.88976495460242
H          -1.73514561580027    0.32746406663254   -1.86088859486316
H          -0.94847143879695    1.31010937055464   -0.96947772830821
O           1.23919653486093   -0.15648297087478   -1.72446662127003
H           0.95218954631508   -1.05584322334842   -1.22239160697493
H           0.35861220372589    0.30490138557136   -1.98500858020903
H           1.59221905627867    0.43152209881480   -0.93515547867694
