    19
        -40.91469035
S           0.11371238948992    1.11063460529741   -0.81233559013634
O           1.11810295919916    0.39303229353924    0.12931969057282
O          -0.99836484652018    0.21820832899042   -1.04072942441846
O          -0.19793469454014    2.39032808367640   -0.28020591820545
O           0.91387620445474    1.24373496102927   -2.12544276616340
H           0.91213365571714    0.34111439678778   -2.54013572281376
O           0.37388708497641   -2.10138852478761    1.26596709036369
H           0.78952850094127   -1.43797909956645    0.69911495354083
H           0.97814251849921   -2.25957263632390    1.99393391561422
O          -1.66289031717699   -0.28096497167257    1.59334604788001
H          -1.16942614168343   -1.12018425045885    1.62162195911567
H          -1.73874896500662   -0.07516921372282    0.65001421104487
O           0.35926035334969   -1.19296601069299   -2.82294762063806
H          -0.33049805764886   -1.02135710304206   -2.15551974793138
H          -0.09113489181379   -1.35233820759694   -3.65624046631067
O           0.26295602221082    1.35885395240423    2.26517483466526
H          -0.55819596981882    0.79418491895253    2.23184313989057
H           0.91592905915908    0.77637928409960    1.08229758052759
H           0.00966513627370    2.21544918308350    1.90092381333992
