    19
        -40.92113583
S           1.16395938446184    0.20114572540574    0.18212927971319
O           2.20019525879314    0.69271264294539   -0.65675792418758
O           0.09259116491486    1.14046681086227    0.45448689881555
O           0.52080784969583   -1.06723719139846   -0.44939659838509
O           1.71645107606982   -0.33168763219905    1.50064011265242
H           1.00816317186463   -0.95578187365568    1.90230277697584
O          -1.88430518866012    0.17845779288287    1.93457836586666
H          -1.22830378874269    0.62161333985034    1.35592582655436
H          -2.03311819655854    0.76855153284405    2.67602881248332
O          -0.89119522987341    1.62054033988750   -2.01486164182198
H          -0.54003098235876    1.62728475633083   -1.10618014187028
H          -1.84287083627692    1.52357469550026   -1.94033865074598
O          -0.19053003500839   -1.83170197410253    2.22911040776114
H          -0.93882362902974   -1.18511948263517    2.22610358122488
H          -0.29310792037724   -2.36192589810668    1.43327754191350
O           0.79318833714885   -0.28771969943620   -2.83251804464329
H           0.12791642005793    0.43373325735824   -2.79090061056643
H           1.64030596037365    0.13560521788679   -2.64232856629593
H           0.57870717622513   -0.92251236954284   -1.46130143369935
