    19
        -40.91413649
S           0.09803773874666    0.05657290005780   -1.09621875780547
O          -0.58638274395356    0.73561285662045    0.11821112606645
O           1.52434114758697    0.12758081042107   -0.89160919713696
O          -0.44619162528656   -1.24375365205169   -1.29251971009097
O          -0.30552643595915    0.97068467302615   -2.27030518522096
H           0.32006267738139    1.74331929993175   -2.25721261526200
O          -0.50448723911627   -2.42283169749619    1.19082735863754
H          -0.47431191403002   -2.30945525648786    0.22760316744304
H          -1.38575787936893   -2.09819041088858    1.44906262058768
O           1.73246183593189    2.53844218636879   -1.94482142676106
H           2.34505028817642    2.60173710883032   -2.68186556196810
H           1.98816983274013    1.75080624702605   -1.42773268745684
O          -2.57862401875424   -0.67110083911047    1.62955243277052
H          -2.19211132360659   -0.08810064987718    0.96416576093062
H          -2.53578959706430   -0.20194771357400    2.46544006434755
O           0.88328713219865   -0.32425853733861    1.83344920955573
H           1.68395010489886   -0.36171585500337    1.29928646403138
H          -0.01382133816918    0.42138130887936    0.93371918920520
H           0.44764332673049   -1.22478276570320    1.75096775826606
