    19
        -40.91893377
S          -0.57243821393064    0.30326938737349   -0.85026029055244
O          -0.18440223300990    0.85113006951278    0.54010057874862
O           0.58656923979597    0.44741061009273   -1.69252127476602
O          -1.14051231495336   -0.99578728692277   -0.72488179361148
O          -1.67142121764572    1.28828221764240   -1.32497168400291
H          -1.20232092931107    2.14451999869131   -1.48322929135444
O           0.19623312685214    3.09409593403549   -1.51894130649180
H           0.68508324912496    2.29969665969855   -1.79158571075596
H           0.50082725366103    3.31855721898646   -0.63588667767115
O           2.07221502730047   -1.04232537702969    0.05290222619717
H           1.68914932876035   -0.59699120765709   -0.71787060747892
H           2.30369175298312   -0.35453501488079    0.68060175108843
O           0.14064193821425   -2.73571471674323    0.98054795625588
H           1.00269682291750   -2.35489496306749    0.73217049270961
H          -0.42160289183273   -2.57406279412433    0.21048624624821
O          -0.99893138237999   -0.78165006811241    2.25118105253053
H          -1.93138983227866   -0.93000699004769    2.07481945914557
H          -0.52647491322788   -1.60364170810545    1.91266239246392
H          -0.52761380100022    0.22264805111178    1.30467649130674
