    19
        -40.91898073
S           0.38497809915730   -0.98214485857126   -1.24627646313196
O           1.30062344800089   -2.02991843460809   -0.87846105268691
O          -0.91217809113326   -1.10276641409172   -0.55809028119782
O           0.91681215973194    0.36087600369050   -1.07756387169801
O           0.06614019708362   -1.14560921054574   -2.78835148428021
H           0.12980639490261   -2.08129284937983   -2.96081509011152
O           2.00588262020527   -0.49131273274851    1.18489203738231
H           1.89507319658229    0.12660559246180    0.43824465883954
H           2.10545562170684   -1.34526126534711    0.73077760677056
O          -1.06862438742203    1.90363894190260    1.63412899560382
H          -0.33001394108610    2.50433022310537    1.75302044798335
H          -1.29260909723594    1.92066536479254    0.65989875384145
O          -1.39021406828645    1.64516981414669   -0.94228688000060
H          -1.95797283099001    0.87973190059311   -1.07406156647391
H          -0.48670472167335    1.31425460084946   -1.12702914429131
O          -0.45085078850681   -0.53791584739037    1.81085397234790
H          -0.75317469984037   -0.86088355100295    0.85103212520331
H          -0.74374771081296    0.46342303706144    1.85287910470907
H           0.58131859958963   -0.54159030491745    1.73720813118282
