    19
        -40.91333125
S           0.52505754325112   -1.10002501672435    0.19376559767231
O          -0.73801545504347   -1.75070213325628    0.25317726960433
O           1.08899746762398   -0.66380280463647    1.44495055114374
O           1.53240343945851   -1.97256853601243   -0.57857414124648
O           0.42575521555263    0.16094622806009   -0.71922091577992
H           0.04444848266824    0.89023920534501   -0.07507404059252
O          -2.69208740438150    0.15300342391653    0.59955873402230
H          -2.81880572228454    0.34815238441135   -0.34591622008393
H          -2.24106181271774   -0.70593097494562    0.61343834177167
O          -2.07276326639476    0.75083068264729   -2.01374679513820
H          -1.96386996418483    1.68131487300948   -2.22051821039615
H          -1.18914171844990    0.39247034284486   -1.86285749687881
O          -0.59063435383749    1.60401049520276    1.04391776650734
H          -1.50196157487465    1.18253572442390    0.99060055265841
H          -0.15192462067080    1.20143752697729    1.80119649779578
O           3.49010051662403   -0.51479766338445    0.31697613783917
H           3.58302391959659    0.35807373967401   -0.07248129741144
H           2.84439325585753   -0.43867650888805    1.04243326726572
H           2.42608605217313   -1.57651100863976   -0.41162559881261
