    19
        -40.91333108
S          -0.58001996139075    1.08086714580647   -0.14281957747943
O           0.63122570141224    1.82030719673763    0.10163375407477
O          -1.41848036142550    0.83630620016485    0.97944796032079
O          -1.39280162417964    1.73387029700189   -1.27668996641566
O          -0.15729927770244   -0.27448978125846   -0.78956770490299
H           0.65564525648909   -0.57237969995607   -0.20420235241469
O          -0.33711053186258   -1.21365237383620    2.45932465657280
H          -0.85617925756402   -0.42571729279698    2.23333405086481
H          -0.76074063344252   -1.93655331784547    1.96322909411770
O          -1.17703822785919   -2.72362256257704    0.31855835530590
H          -1.10604806842790   -1.93692462149865   -0.23648771755769
H          -0.54626508480224   -3.36159889320611   -0.02128059345410
O           1.65078217438453   -0.73004630159001    0.86794248905992
H           1.90059755338569    0.18542748507475    1.03382335136993
H           1.02716733537499   -0.99037428810699    1.61260243261502
O           0.81368978718783    2.38263185424606   -2.48907978145640
H           1.28958880314882    1.66603767117413   -2.91601514917169
H          -0.73037328505750    2.06219748867331   -1.93764058316776
H           1.09365970233271    2.39771380378436   -1.55611271825778
