    19
        -40.92246925
S          -0.16296147949959    0.75811949895685    0.73813292261259
O           1.04816512576510    0.58643573490296   -0.17498111917274
O          -1.26028633733374    1.29528500823448   -0.03238744992119
O          -0.44724597615103   -0.45999528342375    1.43459622267774
O           0.32369152674374    1.81993417614804    1.74834703147814
H           0.43754218271712    2.63608344777320    1.19975555353030
O          -1.82356464744493   -1.08720838136801   -1.16998132253447
H          -2.12483323856022   -1.60462869788142   -0.41894024528347
H          -1.80917942884051   -0.16260794169906   -0.86852780424647
O           0.73943588162349   -2.81183948481504    0.89648501367769
H           1.48626295208767   -2.93553776358058    1.48457032654938
H           0.24276427913308   -2.04334489771903    1.23636988600381
O           0.33074504509102    3.45152119296527   -0.27654363759190
H          -0.46702186911870    2.93869696727864   -0.48527471166678
H           1.02281535546300    3.12957635282954   -0.86102354092018
O           0.77663369393459   -1.52276721114760   -1.41897678844417
H           0.88894121370096   -2.18072831454583   -0.69220782448477
H          -0.19922468414912   -1.47204085376077   -1.56547090115537
H           0.99732041480443   -0.33495354914691   -0.77394161111141
