    19
        -40.91893404
S           1.44165816811423   -0.68848160963024   -0.68526914461839
O           1.32077217025543   -0.54227663495191    0.77338215276883
O           1.07965761283005   -2.01062194267752   -1.12939802559879
O           0.77366325259025    0.39767888337500   -1.37479166760690
O           2.98813920840564   -0.51652075075134   -1.00023562019088
H           3.33064060315137   -1.39736703113969   -0.88209677364991
O          -2.24872015118710   -0.57293189809820    1.33263426791061
H          -2.20786477066855   -1.37525438619452    1.85684589850511
H          -2.03997438623275   -0.84264992745024    0.39808288546716
O          -1.44598195144388   -1.24729710963363   -1.07185054079845
H          -0.58837995237707   -1.71848921387597   -1.09466719174878
H          -1.30181784227242   -0.46950460060213   -1.61911947095359
O          -0.23556784343096    2.51214650140925   -0.27050079083002
H           0.41455591801580    3.21579183825106   -0.31185941080736
H           0.13169425203865    1.76141974448609   -0.80543941449925
O          -0.31765821418620    1.00068588558522    1.76676314506216
H           0.44763915288057    0.34694643661615    1.40230018907729
H          -0.36983494064003    1.72374784714200    1.04194850536980
H          -1.17262029584877    0.42297796813663    1.67327102716117
