    19
        -40.92174063
S           0.65129831187823   -0.02187089187814    0.61251398034826
O           1.03587313337729   -0.90290057057965   -0.45086643159777
O           0.81380301223747    1.38591292005916    0.31658816333616
O          -0.77433427931735   -0.30300556652681    1.04980089908244
O           1.48535775649995   -0.36110554393973    1.86704134280436
H           1.39364879902704    0.41972204476215    2.47207637942733
O           1.16275563626523    2.01386373860479    2.86491096624404
H           1.95318249258818    2.53637331429064    3.02271046393797
H           0.91643845164809    2.14746272929822    1.93091657791372
O          -0.70817247230013   -2.56209327478046   -1.65467804488653
H          -0.72062059343074   -3.39840765854634   -1.18636651348646
H           0.04697505856911   -2.05665475153154   -1.29838607283572
O          -0.35709734799083    1.10321985739771   -2.10746756947276
H           0.08990755093845    1.42702204559557   -1.30810314536562
H           0.25685729987021    0.49053817841586   -2.52084826528779
O          -2.18282318444362   -0.45723884626167   -0.97379562094328
H          -1.46820359267036   -0.36183736177474    0.21376612198257
H          -1.72534885903982    0.22285007022695   -1.52243211028372
H          -1.86949714651854   -1.32185041310349   -1.32738111627699
