    19
        -40.91979931
S          -0.55726842284745   -0.29097197490834   -0.90524930470202
O           0.17743911461351   -1.18474619978053   -0.03678745774660
O          -0.46027789896238    1.13007234641037   -0.28540399328214
O          -0.11916295336227   -0.28356184223708   -2.26312647466118
O          -2.04956283282434   -0.58641214083307   -0.84918836310486
H          -2.40399056596113   -0.45199703710560    0.10088546506078
O           2.37902675257873    0.71386825888561   -2.37194033565230
H           1.46404325191847    0.39715490600620   -2.49360267406439
H           2.92673490312231    0.19173650842642   -2.96096972117291
O          -0.32263666922782   -0.41172506091782    2.45458140951246
H           0.17932288499377    0.40306320877511    2.53060421268445
H          -0.04436461688280   -0.83212640143179    1.61551584834488
O          -2.80043572272588   -0.33392021457574    1.56663346785166
H          -1.93228526443293   -0.29012672315988    2.04193460991515
H          -3.23235980494861   -1.14013794921693    1.85930198992478
O           2.01739552622657    0.85659181777757    0.26971046971349
H           1.88958018708068   -0.09553318886443    0.37358018983893
H           2.38442451750777    0.96996243745848   -0.63165072141338
H           0.50437762413853    1.23880926930966   -0.01482861705737
