    19
        -40.91117807
S          -1.41232637263575   -0.68926770560249   -0.86340784393814
O          -0.04603140355274   -1.38350389876685   -0.81266582119581
O          -1.60829748941580    0.04921642219435    0.35755716220674
O          -1.57774035385258    0.00360724847467   -2.08818077421484
O          -2.40416200491815   -1.90753339684602   -0.82565541994688
H          -2.47797686368681   -2.22224523893007    0.07423929687260
O           0.24574150206980   -1.01747423329057    2.01854717790654
H          -0.50251976832971   -0.58399467187026    1.57238863274603
H           0.66499795493626   -1.56313337619374    1.34680398993909
O           1.74824198271296    1.23763110881366    2.01208665334978
H           1.29595546635021    0.37994299431271    2.15423590053520
H           1.57908492963708    1.76886132411966    2.79153444634905
O           0.45486074047437    1.84033330886892   -0.27213417564927
H          -0.40489712566643    1.47835752817922   -0.02344339040361
H           1.03071491887879    1.73529982603148    0.51806441144324
O           1.19989694018063    0.25123473928020   -2.17427020164178
H           1.07521396786635    0.98817596359955   -1.50428486290878
H           0.59965949475923   -0.78220954667267   -1.42390059964790
H           0.53958346537072    0.41670160606329   -2.85751458037058
