    19
        -40.90330794
S          -0.76938353119652   -1.97089888307138    1.66543230085222
O          -1.13523436761322   -2.88608619078274    2.68048939013421
O          -0.87137819103814   -2.64576017201773    0.28070165141485
O          -1.36350915430121   -0.67386820119140    1.61464927735198
O           0.80652458993000   -1.71902178856557    1.79521953853634
H           1.18490532875073   -2.51951202516201    2.15410192593998
O           1.26431906008408    2.67651214472546   -0.51222235578413
H           0.41255419164565    2.60574357948644   -0.99194124528321
H           1.85047895519148    3.17305939187785   -1.08544117974565
O           1.72777335364948    0.03972966264970   -0.37010502465775
H           1.68746943073805    1.02285557958600   -0.34121278363375
H           1.74114525003715   -0.26938689771526    0.54023963367861
O          -1.05260671066223    2.18809824907674   -1.85083329411173
H          -1.88906352474448    2.49096739625455   -1.49366304604482
H          -1.04940141189212    1.21701741513038   -1.76938001611134
O          -0.77578878689693   -0.41212920661815   -0.95019821078039
H          -0.85849532514169   -1.89975480728480   -0.39965236195855
H          -1.12261586872118   -0.14151721438741   -0.08055473714202
H           0.21230673222935   -0.27604802186905   -0.88562944250109
