    19
        -40.92158997
S          -0.90616001008038    0.81061725071985   -0.83718521869082
O          -2.32388708103031    0.71861422399572   -0.61761570596274
O          -0.13294747254722    1.27493259220626    0.30465766348198
O          -0.34081571820397   -0.43543526518740   -1.37162726193273
O          -0.68153882763301    1.90887366162978   -1.95746554923422
H          -1.42822255885145    1.80462175772030   -2.53934669933495
O          -2.02682209084538   -1.59973740990260    0.65876149614441
H          -1.83760315731532   -2.17347635372441   -0.08740904104695
H          -2.31156087029887   -0.75124805762072    0.26657252328547
O           0.15216601085653   -0.82042488163515    1.93259734181726
H           0.00230945256552    0.10328354641761    1.65027736786767
H          -0.68919879575025   -1.27320265086628    1.68643590890640
O           2.46771285359904    1.18644500033759    0.01431839665543
H           2.88090267085340    1.57630476503485    0.78739121392582
H           1.51188044702398    1.42632937330895    0.05329232291398
O           1.60303470314429   -1.21955116600947   -0.05206437606465
H           2.16231543194530   -0.37214650964101   -0.05471160276009
H           1.07763251644439   -1.18830349542053    0.88067215785283
H           0.82080251606245   -0.97649638129634   -0.71755093791034
