    19
        -40.91687489
S          -0.27698348745379    0.13282590875388   -1.78176493685931
O           1.03825000165009    0.72342540513257   -1.56925862855337
O          -0.26290493137647   -1.29742614016145   -1.50370410365156
O          -1.32802377500806    0.82915910249688   -1.07234060320680
O          -0.58915541073723    0.28842511842340   -3.32569921892125
H           0.14552256462115   -0.18049548314365   -3.70697433708468
O           2.24843089600630    0.07520338031404    0.57597420702789
H           1.80570386038176    0.27015470113446   -0.30591575451713
H           2.81091888345689    0.83263318575564    0.75196354896438
O          -1.02791565847109    1.83896442791881    1.25416327780123
H          -1.92688928558742    1.94112234123543    1.57405763796480
H          -1.11602401611123    1.54286957136853    0.30138999785821
O          -0.96569823911373   -1.96570108496353    0.85179658126178
H          -0.61164599928589   -2.85274347557041    0.94589937065510
H          -0.77939438932682   -1.70105182406900   -0.10015068122914
O           0.25597267367154   -0.15470449184129    2.08851347977752
H          -0.26971753882368   -0.94684234419403    1.64972368377905
H           1.13714539389389   -0.07671974934287    1.53129956680698
H          -0.28759154238455    0.70090145075840    1.84102690212245
