    19
        -40.92267737
S          -0.69060645992990   -0.02770345068305   -0.80966426260767
O           0.38053452226000    0.83608714153788   -1.25123757432374
O          -0.39229566329972   -1.44085745258189   -0.98906206228818
O          -1.02179890679653    0.23761176828369    0.61276268035190
O          -1.96591396511930    0.32695366344153   -1.62375779746572
H          -2.62661093818893   -0.32109273569049   -1.29209511330911
O           1.99970428668151   -1.30875677574561    0.07578894561457
H           1.13883561825847   -1.53378405444808   -0.35092040031869
H           2.49725003606485   -0.82982988360929   -0.59279502879128
O           1.72702836152263    2.37424641126205    0.37065342457036
H           1.28144276690812    1.90185470465754   -0.37512029889790
H           1.25292935538235    3.19949927923147    0.48978679675926
O          -2.96688170072252   -1.65517831522231   -0.22729619418932
H          -2.82537843416358   -1.23493807100707    0.62713984922469
H          -2.10752453668514   -2.03097349686083   -0.47732208826310
O           1.12902379717678    0.35289540685844    1.78923536444192
H           1.59959955368205   -0.38093308670243    1.23940308995329
H           1.47253039788369    1.23384414230214    1.39400925295070
H           0.11813189909943    0.30105481496264    1.39049144659619
