    19
        -40.91892616
S           0.31886543610315   -1.04811914562554   -0.92708421187343
O           1.02970907335886   -0.94879253692590    0.36162518993814
O          -0.76521117392876   -2.00398320206011   -0.85686376168814
O          -0.05843901571344    0.25675036913696   -1.41081348670801
O           1.38106956100310   -1.62328294987947   -1.94752247607376
H           1.42342646126492   -2.55433755822512   -1.74983482720848
O           2.13451294167088    1.51574757165349   -0.46403014829786
H           2.44647923338183    0.81531755639316    0.11636168718393
H           1.52629640276197    1.07336481460376   -1.07967382215387
O          -2.43251322430173   -0.87000286555681    0.78075531562794
H          -2.89331628626944   -1.56386545044913    1.25746525489999
H          -1.90022227492906   -1.32137324150889    0.07639888376561
O          -0.26785485584997    2.39813480977379    0.30308984685109
H          -0.60823034623726    1.96752364412670   -0.49712805365048
H           0.70503224516365    2.40787002578151    0.15578402439333
O          -0.47950413733532    0.40113156762618    1.79414979064839
H          -0.43521768710227    1.32850482064559    1.27030076214791
H          -1.36073178634715   -0.04106435423572    1.51952699759330
H           0.23584942350206   -0.18952386444702    1.29749303520573
