    19
        -40.91836115
S           1.10022747002629    1.01420853004856    0.28081774429874
O          -0.40452450428528    1.25562045522184    0.65000416382769
O           1.90178185298197    1.21331518517291    1.43689315175870
O           1.20599715526637   -0.29872144206031   -0.31950101769028
O           1.33248716623592    2.06498133186582   -0.79764425377719
H           0.84694754745302    1.69645924126656   -1.61864113101787
O          -0.45132549823620   -2.08467506231659    0.59972923006757
H           0.23750816130039   -1.50157067639652    0.20484048200603
H          -0.15582013432916   -2.98780246724137    0.47164075787966
O          -1.84134443776325   -0.28712631558818   -1.18806847275905
H          -1.56389747542980   -1.06492941825474   -0.68279377812548
H          -1.87895144071745    0.43276589326828   -0.54871597816695
O           0.12844411183035    0.81170900275270   -2.65342491443300
H          -0.67403382168862    0.42467621453877   -2.22703784050396
H           0.74394036942095    0.07937108349362   -2.74986721662706
O          -0.27371213676678   -0.29222528607605    2.67167014286068
H           0.66959852952318   -0.13335502949669    2.78891876870218
H          -0.53973247110121    0.77271746890869    1.52149720921296
H          -0.38359044319690   -1.11541868889023    2.15968297192483
