    19
        -40.91329957
S          -0.78825501866493    0.76686774056681   -1.30055596033521
O          -1.55564975970154   -0.12984958205550   -0.48111132090253
O          -0.94465051402848    2.18685438540484   -0.77863695053734
O           0.57776917260223    0.40717618752615   -1.50971460115712
O          -1.46188166165656    0.85243496898107   -2.71467082481469
H          -2.39788024951808    1.00807311280330   -2.59919493566763
O           0.17416482132952   -2.22522801964251   -0.74944388454653
H          -0.66448143710904   -1.78246488425432   -0.55639773335783
H           0.66779216262185   -1.57627869377007   -1.26621275692678
O           1.57868879633829    0.68514427094818    1.08154977550958
H           1.50139989796321    0.63787981338301    0.11866254856938
H           1.57744670194922   -0.24498488699797    1.40058356115136
O           1.36618330936110   -1.93052629938233    1.64354400808995
H           0.90942145765593   -2.18113259442845    0.81004414892226
H           2.13450318913731   -2.49865792363727    1.71581838876767
O          -0.73578796316284    1.67472653853255    1.63080120455020
H          -1.27286480964593    0.87644438782725    1.68178715824460
H           0.22208702345771    1.36320071778411    1.59007991372932
H          -0.88800511900323    2.11032075939538    0.28306826037668
