    19
        -40.91638431
S          -0.21094463921790   -1.19171264185984   -1.16629697110231
O          -0.71983555850385   -1.32148352791040    0.17702896228189
O          -1.19138036825254   -0.92095318922198   -2.18531728507940
O           0.90936649607929   -0.22763420159907   -1.21302327675340
O           0.43660538912520   -2.59890228158891   -1.52541052254728
H           0.45088930405867   -2.61616441294794   -2.47796783323106
O          -1.24570161733119    1.59103316515625   -1.37283594280422
H          -0.42865895529557    1.81658192039116   -1.82644858326763
H          -1.43764822205740    0.67799925503015   -1.66704154194926
O           0.74567140951800   -1.38849771893760    2.29373018798033
H           0.16028325485989   -1.56432111172958    1.51182067842952
H           0.15387516582749   -1.22071308867999    3.03074284552990
O          -0.67184267603259    2.04467925487018    1.15930524670088
H          -1.03255039262294    1.82499575581809    0.26186659771691
H          -0.66431412896830    3.00200849798245    1.21971191906001
O           1.47048928962312    0.67347440787768    1.00488951812460
H           0.65791536581287    1.28256906551298    1.14335471078985
H           1.31153952629712   -0.13613205806823    1.62107757499053
H           1.30624133699218    0.27317290993004    0.01081371523374
