    19
        -40.91983411
S           0.68373191355516   -0.24881304929293    0.54674210144711
O           0.29801798433648   -0.77025812788485   -0.73743505122766
O          -0.07384973340067    0.91804402554727    0.94352038155886
O           0.54162650197954   -1.33671514511151    1.61704207743852
O           2.17859889022918    0.06553167813427    0.56433318898648
H           2.44998849786610    0.31409943298846   -0.39608066216706
O          -2.58093672009343   -0.02693184352894    1.18723043789186
H          -1.73170726494830    0.44553360521032    1.09837174929714
H          -2.91391558463981    0.17768381872128    2.06351967737570
O           0.41705112004712    2.36014894441921   -1.29409702082962
H           0.21260317516088    2.01444655056541   -0.40805447683534
H          -0.39723913659055    2.30263309397517   -1.79873407958463
O           2.38841680932173    0.64768261065220   -1.88209105968902
H           1.80296741412362   -0.07237076534562   -2.14733440101820
H           1.81288007126257    1.44282721721188   -1.83062848336020
O          -1.51162840591509   -2.40747839366655    0.61083644257386
H          -0.25958415666209   -1.91549023242079    1.33949431018465
H          -2.12093817207329   -1.66168224954485    0.81088700918342
H          -1.19608319354506   -2.24889116070095   -0.28752214124011
