    19
        -40.90817067
S          -0.43413564507942   -0.08497666049747    0.37038140345324
O          -0.40246181211340   -0.78188738049065   -1.02960588095992
O           0.88487877902388   -0.17321355238062    0.91711441110597
O          -0.97820025447705    1.23219957667701    0.24017720887333
O          -1.44344755219442   -0.96458795493625    1.12592914335626
H          -1.18622469430296   -1.91319479192628    0.99815087383896
O          -0.29703849253650    1.28916729980010    3.03119228133515
H           0.42082872973471    0.79180743109369    2.62891341298531
H          -0.80816608573849    1.64741873707029    2.30152349450584
O          -0.73096559779796   -3.27905218988537    0.16669590146924
H          -1.46699562606433   -3.84156726644176   -0.08911646399892
H          -0.45830400094358   -2.78221284243679   -0.61593847648758
O           0.66591718142702    2.57425849232543   -1.43267926097959
H           0.03889481824996    2.25240053818857   -0.75962018873003
H           0.15314762207501    3.08412534901828   -2.06294657723546
O           1.80991355554261    0.19276721656925   -1.71755417041599
H           2.20034109390911    0.07723762794498   -0.84216518612071
H           0.47905621939431   -0.46299347110637   -1.46346066428168
H           1.55296177183897    1.14230384145210   -1.76699126176508
