    19
        -40.92136501
S           0.74822989936170    0.74983176790721   -0.05489738590868
O          -0.62106018697496    0.68237229774002   -0.79105773071918
O           0.82401496723522   -0.39799550117275    0.81609607448486
O           1.81800459133912    0.86782987941126   -0.99307450861029
O           0.61849821280971    2.03986014989377    0.74750167440239
H          -0.31427855870398    2.05405231320855    1.17200410710147
O          -1.19186961075529   -0.60165823775931    2.51048669815476
H          -0.85730593666641   -0.73601805225678    3.39924096905667
H          -0.41464469730809   -0.64525588330918    1.91252391993563
O          -1.74296644290168    1.82767454201507    1.64175437077986
H          -1.68746877717381    0.93890620031773    2.07369198464790
H          -2.23501838594355    1.69941738344875    0.82561824212990
O           1.87514510835144   -1.24226574955556   -2.64042586364503
H           2.03896028897122   -0.47969746089290   -2.05165422251189
H           1.94188903116713   -0.90932133952312   -3.53758462141911
O          -0.40750397697964   -1.76497079366002   -1.39849263403304
H          -0.68976331322309   -0.27992236711110   -1.11905960191904
H           0.39392161322109   -1.73437049508496   -1.97356488139021
H          -0.09678382577001   -2.06846865344646   -0.53910662049729
