    19
        -40.92136376
S          -0.80198942791354   -1.07601706130075    0.35270180957369
O           0.60679719110941   -0.99546834604831    0.77756429614056
O          -1.71388173180522   -1.00393149162395    1.46730669956549
O          -1.07585497731502   -0.12727134187554   -0.70290571617757
O          -0.95755207969457   -2.52168157533034   -0.28486878457769
H          -1.21539783480073   -3.07376383938117    0.44792734274784
O          -1.43979470403407    1.61543860364590    1.53411380071175
H          -1.94181686423187    1.86369708602419    0.75283106885575
H          -1.63552816058358    0.66117341295131    1.67467102622098
O           1.82839056675517   -1.01183186471820   -1.61294542806442
H           1.33881082553438   -1.62127869990028   -2.16787819721474
H           1.49160956728044   -1.14158741193543   -0.70624849137616
O           0.84718931156838    1.46311480782327   -1.50201688621942
H           1.46071338168620    0.73721355382718   -1.75183969905315
H          -0.01707792411479    0.99676623654950   -1.43143108640852
O           1.04376036480022    1.46793297453610    0.96779369449446
H           1.05329561269061    1.61691851736453   -0.11666692995385
H           0.09766892470366    1.70798852072859    1.27770049114361
H           1.03065795833497    0.44258791865362    1.02419099960515
