    19
        -40.91226863
S           0.93861573811176    1.14865438564691   -0.93078447343277
O           1.30161087271892    0.48159478150913    0.40863725336900
O           1.25641372697766    0.26434698578146   -2.00540773167997
O          -0.37120539245708    1.69919922627510   -0.84891232219835
O           1.97122733560950    2.33893728924104   -0.99194583621822
H           2.74146913663514    1.99876375879463   -1.44149587050334
O           0.66502879842314   -2.22496551025508    1.12923652053567
H           1.36430173398455   -1.57562096022748    1.00703205790344
H           0.05163108702915   -1.84221699295548    1.76373409078126
O          -2.39547023975587    0.04298750792334   -0.03212255775794
H          -1.95358647380801   -0.68807471375807   -0.52272641668083
H          -2.12868757179194    0.83928344471709   -0.51033380400471
O          -0.64865879299553   -1.57192630047030   -1.20726536423061
H          -0.18716095448629   -2.03275261634127   -0.48357272032063
H           0.01943347320033   -1.06627808863591   -1.68805852531135
O          -0.72023312401217    0.34681953352529    1.87235267158666
H          -1.45951067082530    0.17648614873986    1.18559822561548
H           0.46635066793870    0.45826469404350    1.04273815268245
H          -0.91156936076773    1.20649742646954    2.25329663986795
