    19
        -40.92135331
S           0.49207911908941   -1.34852876258343   -0.61357611291065
O           0.88120680111437   -1.59737558458918    0.77518510408842
O          -0.91805412660325   -1.58429201785703   -0.83208214316681
O           0.93064057440101   -0.03684258036557   -1.06342163132415
O           1.28443993450709   -2.39505071428411   -1.48941947759751
H           0.90788270042480   -3.22662929722669   -1.21863016542625
O          -1.14396545024479    1.61956124315251   -1.50062561782655
H          -0.33019228686422    1.07998675308708   -1.46200633258627
H          -1.58620356923810    1.37954507732891   -2.31669741302002
O           1.59558952665716    1.67366089051451    0.84204887088111
H           1.43909226567541    1.13137782320762    0.03581131993733
H           2.51993949622034    1.56165446633122    1.07157541927409
O          -2.05469688041049    0.29395155793485    0.59657317855966
H          -1.83600055134540   -0.53241751619631    0.10417771015051
H          -1.88524472527624    1.00151911546236   -0.07033556908861
O          -0.10202769042023    0.25643053364390    2.11619725208872
H          -1.03275034055383    0.34895881463535    1.54956480185525
H           0.31233138492093   -0.60361670943698    1.70713073829001
H           0.52593380788389    0.97810689741392    1.76853007782862
