    19
        -40.91955650
S          -0.73627601333638   -0.20257872160261    1.40730765463268
O          -1.13172927367201    1.10857263801941    0.88868802364931
O          -1.01967744225860   -1.24291358758107    0.42062239176101
O           0.62297694308484   -0.23691997903754    1.87993502222751
O          -1.67267699107190   -0.47804213798402    2.65212488281728
H          -2.54554364342928   -0.24084788230733    2.35277603277787
O           1.49491209133762    1.72605800556615    0.44971215356391
H           0.65295679399547    2.19287520496299    0.53908261846991
H           1.39811103084861    0.97919709559153    1.09404153752256
O          -1.26201113811191    0.54536966593232   -1.62131418914587
H          -1.51705280164828   -0.37557449306499   -1.48333685800845
H          -1.32566255195820    0.92562394266238   -0.70599218825679
O           1.21858593439225   -1.87084295322170   -0.73052037088195
H           0.40943204480434   -1.72511093314898   -0.17559857449738
H           1.08454534659711   -2.68916410389847   -1.21207170154520
O           1.25418854488455    0.46899843343813   -1.70194016289810
H           1.47115550993809    1.05756724481191   -0.84460536057275
H           1.38779670759742   -0.50029142495086   -1.39512759014628
H           0.21596891793491    0.55802397595474   -1.81378333138823
