    19
        -40.92007402
S           0.03735818443740    0.43712056616796    1.32545700119303
O           1.04746705358416   -0.27509819064144    2.07554257818196
O           0.63190790259071    1.17995691575665    0.19587147506364
O          -1.07635391131339   -0.36306363156509    0.88879031389455
O          -0.54764562377537    1.55342309288807    2.28733126571381
H           0.20418307658721    1.81982345563845    2.80808990776900
O          -1.41760911073631   -0.76151729000971   -1.68516278225623
H          -1.66312984915845    0.18679626213019   -1.79358181965469
H          -1.49436935368050   -0.88791188161913   -0.71308492332473
O          -1.64652918690856    1.81954857805539   -1.08992181707809
H          -2.30752658744062    1.89441075811019   -0.39877832473375
H          -0.78749522025847    1.76291923142977   -0.63131782152404
O           1.67289561013791   -2.12072427173910    0.34456579980476
H           2.57736852505457   -2.39147585587877    0.51712218347044
H           1.41696319296155   -1.51408308098050    1.08306763012455
O           1.04233434420385   -0.55915528428838   -1.56772251890995
H           1.34389931695109   -1.30454713453406   -0.94086292245178
H          -0.03095500076695   -0.73121712901372   -1.76417917078578
H           0.99723663850223    0.25479487964290   -0.94122604387088
