    19
        -40.91418240
S          -1.55065469484734   -0.82222573031141    0.39468751027136
O          -2.63788369155831    0.07878267019601    0.18830113711327
O          -0.68272094419286   -0.87487865647832   -0.86226841042276
O          -0.71938706478504   -0.63918599223432    1.54241439765095
O          -2.15173720603234   -2.28070937252243    0.48629339527750
H          -2.94515199026953   -2.30949602874035   -0.04515940144068
O           2.78943927279833    0.53618933582005   -0.33078216973934
H           3.46424916985122    0.52982685730058   -1.01127926239035
H           2.03662634957690    1.07208145633596   -0.68934359182928
O           0.61050246666811    1.67019033656023   -1.30867464668442
H           0.08299685779181    0.91652871190007   -1.59371478755384
H           0.12694070026883    2.04914978668246   -0.54668468464760
O          -0.91029262821407    2.08495191495931    0.88867149424741
H          -1.75972673485875    1.71111812859500    0.61894597177890
H          -0.57164880542298    1.47974224825171    1.55660530040542
O           1.42383297669820   -1.61496738340692    0.17012212634589
H           2.05173296695189   -0.84833073735613    0.00606670836066
H           1.06884345206214   -1.48102221300457    1.06072885248428
H           0.27403951749636   -1.25774533249175   -0.52492992922944
