    19
        -40.92219808
S          -0.78170531869262   -0.68780772784660    1.07372841734593
O          -2.14791612174718   -1.04276132781071    1.20852975215024
O          -0.10984509271209   -1.43225213908103   -0.10092887686142
O          -0.54478154744284    0.73749332178980    0.90274274448782
O           0.04678836789751   -1.18941329255610    2.26393865501804
H           0.99859101026007   -1.03173098561636    1.99393916259450
O          -2.48420385108561    0.90209587094055   -0.96278736017155
H          -1.94885052701097    1.11863530096315   -0.18387754191548
H          -3.09217832753747    0.22002055565967   -0.66429845282221
O           2.35094631771142   -0.78244788863143    1.14419598510451
H           2.23417248307436   -0.02353659363195    0.53627529282452
H           2.40110233505660   -1.56248322746983    0.58523292810409
O           1.58790778647263    1.30175544594616   -0.46801718077601
H           0.76656032734710    1.21359262705763    0.07084699502869
H           1.93951400828351    2.17593412252585   -0.28894416701258
O          -0.28709128651665   -0.01658090169232   -2.17093783087584
H          -0.19144437035785   -0.93514571733523   -1.00727909220498
H          -1.14906571747328    0.41368325656726   -1.96891520066575
H           0.41149951378548    0.62094930041627   -1.96344423928936
