    19
        -40.92158997
S           0.62164308588488    0.15050938986230   -1.33042067458505
O           0.68734728477594    1.10031948084758   -0.22992999983806
O           1.84704217358734   -0.54790810895738   -1.60848108671536
O          -0.51556959651622   -0.76281775585846   -1.15697813164170
O           0.28790064754094    1.02698038038607   -2.60785074000306
H           0.58540060387369    0.49557888000701   -3.34000827021673
O           0.50284443397344   -0.32640267839591    2.01696773491656
H           0.80795004059756    0.36286162693546    1.39454874726095
H           0.91732965620066   -1.14997902139013    1.66562646253026
O           1.41289178601702   -2.22106736731154    0.41715968575757
H           0.71307989035684   -2.75815749153046    0.03830306338216
H           1.74989552500344   -1.67731929557676   -0.32156905115807
O          -1.59583459431958    2.17570134561692    0.46736542474618
H          -0.71763726336672    1.95018134294998    0.07918913736911
H          -1.43503575367304    2.83164169762084    1.14874809834323
O          -1.74671306218246   -0.33142152096305    0.94892001164255
H          -1.91286086273304    0.66510502857891    0.84639450150300
H          -1.34010992325557   -0.59063404970400    0.01070944020173
H          -0.86956408507520   -0.39317187938224    1.56130565589705
