    19
        -40.92120579
S          -0.62857182845986    0.74341311720678    0.97603858917279
O          -1.86872196139798    0.31141924930335    1.55966844609647
O           0.51545524342589   -0.07905145714406    1.37009801220453
O          -0.65748191682350    0.94409526833359   -0.46377807967105
O          -0.32328159662698    2.19361730874300    1.57246596157241
H          -0.73874462943408    2.18530210475134    2.42953309561874
O           1.89408407919919   -0.81206139306579   -0.54861940949722
H           1.38835402395004   -0.61099710733543    0.35261860412802
H           2.08129345902894    0.12946414667760   -0.87602251991590
O           1.78219926363410    1.69944539484281   -1.04343578388031
H           2.07629986982101    2.30351992506512   -0.35908476332081
H           0.81058875918594    1.59624631893962   -0.91869550036652
O          -1.66547112818091   -2.06011183031181    0.35303234792673
H          -2.52106669834689   -2.49163916133766    0.40146528647831
H          -1.74893048123285   -1.22937460793530    0.86001323219494
O          -0.21643921967245   -1.35148607939537   -1.76510691348074
H          -0.54203923255023   -0.44074782555448   -1.63474931441023
H           1.09206727327645   -1.16472372444614   -1.15951210307594
H          -0.72959328875956   -1.86632964730250   -1.10592919778560
