    19
        -40.91541012
S           0.16732868583072   -0.59848961971155    0.44631115127439
O          -0.74815354225594    0.31221586275461   -0.21522713566325
O           1.48349499477580   -0.08017950077057    0.63803933530607
O          -0.43946797431583   -1.03246322343642    1.78736282717896
O           0.17916009745119   -1.92990707723990   -0.32096502043825
H           0.57651316800852   -1.82770215286977   -1.24869580270366
O          -0.60915745640431    0.52033424376981   -2.87687837619419
H          -1.51274430133488    0.55817105247393   -3.19643649647251
H          -0.66075337647662    0.58326694103936   -1.90227010720713
O           0.97929787100117   -1.60303870042533   -2.72627377237990
H           0.62449899477101   -2.28771552999986   -3.29868986271557
H           0.49521931779753   -0.77102723715769   -2.93615795076311
O          -0.81326227460097    2.16644561688994    1.75725164907715
H          -1.73609535662477    2.26547159176698    2.00038079702414
H          -0.79734127525410    1.62124740027511    0.95103906734333
O           0.85725021382822    0.62024025805795    3.18630999988078
H           0.03867667755158   -0.47521719886494    2.50368074785882
H           1.59656996239778    0.57547957066875    2.56338895907841
H           0.31896559379355    1.38286769272847    2.88783000052632
