    19
        -40.91304132
S           0.07085870050507   -1.64935641957976    0.77097566223204
O           1.40984068628381   -2.08466517425420    0.93424599730148
O          -0.38532173845635   -0.53192582217092    1.55494333179762
O          -0.20939732441500   -1.37459042962204   -0.70668494935497
O          -0.87895958458884   -2.86012922468370    1.11414283576088
H          -1.72323258546668   -2.52460189903534    1.41146960355103
O           2.52292581942709   -0.20147537482003   -0.69884753220514
H           2.11005197626283   -0.45557544202210   -1.52739628618641
H           2.38961291807803   -0.94399656905197   -0.09097523902503
O           0.99954055539343    1.66715593903360    0.54770515220012
H           0.56656047831492    1.01927957010178    1.12061320836744
H           1.71400524367049    1.17594207603580    0.09835174272005
O          -0.79512176336060    2.35933063756754   -1.26405713690787
H          -0.04555303171770    2.19181239854876   -0.63766966041908
H          -1.07512497777588    3.26349915591289   -1.11495155600922
O          -2.07251636924783    0.24898748078886   -0.42216977846697
H          -1.84482588677700    0.34840371538906    0.51331899484278
H          -1.72400648305245    1.07328709796719   -0.86408604146656
H          -1.02933663395740   -0.72138171625222   -0.73892836547914
