    19
        -40.90722499
S           0.81535156062769    0.57002397643443   -2.10463731376366
O           1.62108682647982    0.85879724887483   -3.23407432055138
O          -0.63444589165360    0.33115322693257   -2.52131606522220
O           1.23134184497405   -0.43631061403613   -1.18014577933483
O           0.70664202497124    1.93072117215253   -1.25381516859456
H           0.85409017059481    2.62638912881736   -1.89020239521934
O          -0.33823974738055    1.15983614780448    1.35314007742118
H           0.01127387425041    1.83450717402140    0.76479460090358
H           0.42840491821735    0.55763820712781    1.53044053139040
O           1.58115707790831   -0.66821379102160    1.48707429676065
H           1.04392779301527   -1.44958069153786    1.66479341044843
H           1.68248994673099   -0.64263232948699    0.52051113136711
O          -0.95391730365862   -1.90842034485552    1.91185266370710
H          -1.43943385007251   -2.52046449795152    2.46715245548423
H          -1.11007544869105   -1.02287203031785    2.25802872554262
O          -1.69115512189614   -0.33457430295122   -0.34732412371997
H          -1.13435549676490    0.02526296474301   -1.66865411622309
H          -1.39085949594912   -1.20718255879795   -0.06270963957187
H          -1.28328368172810    0.29592192419337    0.30509101930048
