    19
        -40.91790579
S           0.66607159682334   -0.59162992551831    0.51087236497209
O           1.82900461569005    0.23083292213255    0.33878958717951
O          -0.21575701929610   -0.03403046283896    1.61268396919301
O          -0.09916354218376   -0.81145978742493   -0.68969857838961
O           1.08883744410859   -1.97576754177741    1.09516551555984
H           1.68837715700636   -2.35398240608728    0.41831903085637
O           2.38988691495177   -2.03477468995923   -1.18528644081235
H           1.58382581820125   -1.83748752812566   -1.67513160230445
H           2.80104617725065   -1.18385757967857   -0.99426168397256
O           0.30170913985090    2.48415316132101    0.12432904746976
H           1.00315611681910    1.81465790198075    0.13837500589506
H           0.12811691629507    2.70830180873671    1.04109715204328
O          -1.75043721791887    1.30065232272209   -1.22932124743618
H          -1.18887334406258    0.53589356673713   -1.42698223884190
H          -1.13352536506460    1.96557865411023   -0.87146733668847
O          -2.59202455727929    0.03137435800154    0.85856230205626
H          -2.81854520430818   -0.83653791409856    0.51470500127751
H          -1.24522736640797   -0.02916968937612    1.36612404063466
H          -2.43647827967165    0.61725283042361    0.05312610176457
