    19
        -40.90324983
S          -0.31215468135506    1.22784912087905    2.00506402648577
O          -0.22748353771801   -0.19796475478200    1.39619937412708
O          -0.86116967898946    1.15636283595282    3.31009441386618
O           0.92640522690235    1.89391052122326    1.77425379903297
O          -1.39482076035171    1.90816020445181    1.06497771134593
H          -2.24055491486697    1.83955965573675    1.50220356653904
O          -1.38768760750012   -1.35373708662446   -0.98530978196926
H          -0.58933902856724   -1.91309577159076   -1.03114777839003
H          -1.46265458740711   -1.10112952365064   -0.05989308967316
O           1.13578065643215   -2.40459301113779   -0.71264167153378
H           1.58522799431605   -1.54936139873085   -0.68705579812749
H           1.30748096631968   -2.83078613581797    0.12875347718091
O          -0.26010013491486    0.74525075885415   -2.19821183034314
H          -0.83657676993093    0.03214033730396   -1.83523982011650
H          -0.08449544958254    0.51045945345669   -3.11098567206057
O           1.53646978307504    0.35646375874693   -0.33014632096530
H           0.95936953090913    0.63109193966056   -1.09283302761665
H           1.71675854316463    1.15409764555365    0.19130720937470
H           0.48954445004791   -0.10467854942221    0.67061123286043
