    19
        -40.90754436
S           2.06816274089668    0.59141473736135   -0.10847553771424
O           1.43056519807337    1.57445048008823   -0.92870408285526
O           2.27228962637517    0.88377947228277    1.26548559442839
O           1.31358009700757   -0.75876433919247   -0.23075705371111
O           3.44432388149742    0.23551655883300   -0.78050418785712
H           3.34157933774917    0.36113182034005   -1.72247061920169
O          -1.37473850988869   -2.09551924252805   -0.25425786269152
H          -0.50328054319983   -2.09372882947949   -0.66024333072202
H          -1.24156950938358   -1.83524444194041    0.66457284241070
O          -2.58360891198593    0.12903428436447   -1.25528311279209
H          -3.52768458750640    0.09692933455400   -1.09374868335509
H          -2.22594500704361   -0.74445684204260   -0.99622167968994
O          -0.98993683104040    1.56500537129837    0.37997095205429
H          -1.62058697128647    1.18450034176406   -0.26981571307304
H          -0.20161855440478    1.80493787207402   -0.13028208782779
O          -0.17286310730831   -0.43500769028904    1.77169213986068
H           0.70704681954343   -0.75846103945877    0.60233430165461
H           0.46836565703989   -0.08264960853419    2.39738999354196
H          -0.60408083549825    0.37713175182723    1.34931812681599
