    19
        -40.92123227
S          -1.16735108761795   -0.08413500790527   -0.30950934098604
O          -0.66285503584884   -0.38315337332605    1.10193554919964
O          -0.78240062202291    1.27250301049097   -0.64373131876909
O          -0.73981551856208   -1.08227721227424   -1.23478512810612
O          -2.70006798532788   -0.14926966450719   -0.14488109736766
H          -2.90823238215088    0.59427952506568    0.47267324179691
O           1.88555796456772    1.18743852122056   -0.83848143205662
H           2.24009653799606    2.07640844119142   -0.77381916307606
H           0.91521114732217    1.27863584901874   -0.90817278409058
O           1.45727609421521   -2.60856731133336   -0.93466666967534
H           0.57986951068353   -2.22505778228432   -1.12017668431878
H           1.97917995427869   -2.47102852498517   -1.72823139815993
O          -2.40725450639691    1.92245161080351    1.40493204221412
H          -1.92035810041622    1.56039102106732    2.15095708798070
H          -1.75253518605177    2.11634128369393    0.71469131987837
O           1.76708830067229   -0.78524607308783    0.94832419058348
H           2.01438839444497   -0.03985581877521    0.35593927909133
H           0.41017920075669   -0.58883779393781    1.11445406665690
H           1.79202331871013   -1.59102068788425    0.37254823727723
