    19
        -40.91892665
S           0.15797525325545    0.16408987782126    1.41687868739712
O           1.14624594346761    0.69200178920249    0.50930998515580
O          -0.84724618888602    1.11640862975336    1.83707381268800
O          -0.45788705138292   -1.06059509607957    0.87224336001030
O           0.93158961487926   -0.29780727505161    2.71645540985281
H           0.25319915143777   -0.38660259501096    3.37955159491140
O           1.99699637094257   -1.71780557047396   -0.36055205598312
H           1.27459232438163   -2.24625189995634   -0.00887731554714
H           1.95933269485346   -0.88495168182649    0.13915006299818
O          -1.94547518996153    1.82266769437219   -0.40915691039285
H          -1.51718084351097    1.68237814419124    0.47388875303953
H          -2.86552075348992    2.03124930699124   -0.23295192216824
O           1.11042191931624    0.04117081716147   -2.16471432593870
H           1.56939138368827   -0.75453440751774   -1.81150671040631
H           1.31032179012342    0.72326037179587   -1.50433139073347
O          -1.22632065270675   -0.40707401765075   -1.39371743640627
H          -1.60454202024902    0.51211174758404   -1.15001029945175
H          -0.28167420625445   -0.22813509674450   -1.85459349519250
H          -0.96421953993214   -0.80158075853151   -0.45413980391468
