    19
        -40.92071379
S          -0.51792997141273    0.73307113456362    1.17766812762258
O           0.01087733898304    2.05683879584759    1.41329717723480
O          -1.19484259849474    0.64111433913160   -0.13102132939753
O           0.45602912925454   -0.32461161021776    1.31913713549865
O          -1.64475352866394    0.49322323447004    2.25929468297553
H          -1.98198319528496    1.36712867310273    2.43472520196726
O           2.18702414954945    1.55492051888056    0.04649958089485
H           2.59241232324454    0.88963392537850    0.61039573011317
H           1.44672070750722    1.92695668932171    0.58172808998761
O          -1.79904029809653   -1.86834979376289   -0.86266615739551
H          -2.47800224923976   -1.85027100320128   -1.53854628618566
H          -1.72421132207816   -0.95687361792147   -0.51656062553390
O           0.86088802544118   -1.93534294468250   -0.71673133535396
H           0.82939503344512   -1.55502204948140    0.19153175323547
H          -0.05910539418117   -2.23645169007012   -0.87128378887582
O           0.76782554981128    0.34356736510033   -1.67801119651972
H           0.90367328296168   -0.70932561642164   -1.39516714181493
H          -0.11393615893676    0.55922992149254   -1.19896035847313
H           1.45895918626976    0.87056374207040   -1.12532925535732
