    19
        -40.92343666
S          -0.75915711132172   -1.20503235889793    0.90357539363400
O          -1.90774688313242   -0.70784975901981    0.17660302478836
O           0.05095377260325   -2.11267267556724    0.08982246432194
O           0.04316271910829   -0.13660522130349    1.47800281772034
O          -1.29298956203649   -2.05691572590384    2.11647793960126
H          -1.78912469118483   -2.74633850070293    1.68628927904711
O          -0.86537032657937    0.69100002148842   -1.77239263273190
H          -1.43752989491235    0.13988628345665   -1.18668240292775
H          -0.64544065740649    1.46828767269715   -1.21727574255647
O          -0.22980317975074    2.24042300850551    0.32770392425554
H          -0.21793770197760    1.41402421362591    0.85937987952486
H          -0.91345105829048    2.79381042196404    0.70779599359298
O           2.25318630457248    0.68385729677291    0.22771975233272
H           1.99496121544131    1.60786827805759    0.13821933866281
H           1.63305310153128    0.30911054951726    0.88741701002106
O           1.18862949306902   -0.71088526039799   -1.61618824309034
H           0.77482573551368   -1.42719151095471   -0.97688767773489
H           0.34280100726360   -0.09620733146367   -1.84089170407724
H           1.77697772708899   -0.14856939302020   -0.98868841436546
