    19
        -40.91836651
S           0.32964527979442    0.50345527769915    1.87809800431078
O          -0.97793632019693    0.87992532316906    1.39271837486133
O           0.57448150928422   -0.94228950800131    1.75318866426271
O           1.40995973998715    1.26698492801665    1.28129651037313
O           0.35076081590244    0.80841091674798    3.42575446466683
H           1.26343087705075    0.65736666797122    3.65243092674265
O          -1.40819221226536    0.99791301133958   -1.13883675222406
H          -1.27749598698037    0.96862444195751   -0.14988283395582
H          -2.11844806931125    1.62539047019768   -1.28334077103339
O           0.94058893912342   -1.63319890681550   -0.58013170216845
H           0.01448426341390   -1.79957889818145   -0.95676975664777
H           0.80696249880831   -1.42645732839789    0.46476772786380
O          -1.40808966906960   -1.63323570477374   -1.64218498538036
H          -1.56428611706602   -0.67697229480809   -1.47643557575392
H          -1.44375318707951   -1.76494091975334   -2.59145176153836
O           1.33705808143603    0.74395584863858   -1.26024564372227
H           1.22229790164037   -0.68923090025085   -0.96216899695683
H           0.43333512729872    1.03793472127426   -1.46268940445881
H           1.51519654818288    1.07594283384291   -0.34411646939279
