    19
        -40.92161571
S          -0.70963430894710    0.57551703888191    0.55106681051101
O          -1.50651060867726    0.77112858002832   -0.63787876972886
O           0.51605164267056    1.31429785777693    0.58635788413591
O          -1.55188197748846    0.92334618992496    1.79611926641517
O          -0.45240986934579   -0.92080085385386    0.72865228149828
H           0.36280368339327   -1.27783303040017    0.11408415583568
O           2.93487366473469    0.12611642747986    0.72683697241778
H           2.11226635107471    0.64175847143654    0.81369360495833
H           3.65462456189731    0.75726415662060    0.67894977940853
O           1.44046617588565   -1.53788013227437   -0.74166599298407
H           2.18538551578441   -1.14855343864603   -0.23903223321647
H           1.25207742832497   -0.90421576324833   -1.47366071432748
O           0.67166747471280    0.54068770971561   -2.22177652299948
H          -0.23182252180889    0.65166678030259   -1.88100304573893
H           1.15744124471193    1.30721999791034   -1.90689680470784
O          -3.38252978052432   -0.59095082607437    0.74142583120331
H          -2.39552692859467    0.42089831901765    1.66640985410759
H          -3.04246100398662   -0.17064006686720   -0.06476458176595
H          -3.01488075372033   -1.47902739774858    0.76308222500957
