    19
        -40.92021790
S          -0.17426781418143    0.39728621788015    0.96543667435455
O           1.18474830765491    0.59856459212075    0.32069833673554
O          -1.21189929684576    0.78981558814330    0.02815249976353
O          -0.30299800295368   -0.92566509650629    1.48908573012464
O          -0.16947531047993    1.40506975085138    2.13602630648067
H          -0.33726041558137    2.29037869703925    1.72723419919633
O           1.04040494589396   -3.03449284363734    0.50510380764805
H           1.69311222017090   -3.26916911492714    1.16739277475439
H           0.42974840510512   -2.40486965253658    0.93332255289612
O          -0.99510620739411    3.35141109332636    0.61780991127773
H          -1.82650095837592    3.75203276215076    0.88350529616591
H          -1.21522517437481    2.54494579934950    0.11376136313392
O          -0.92204523912507   -0.68476374315410   -2.19968641108664
H          -1.11176759016670   -0.11006222175505   -2.94379254984123
H          -1.17130867291223   -0.19203715884435   -1.39471398413976
O           1.53633647726321   -1.19792876119109   -1.33219301315637
H           1.41147858152123   -0.16917473639674   -0.42427701520012
H           1.45676413827360   -2.00659555000908   -0.76838939400543
H           0.68526159650983   -1.13474560190491   -1.82447710510572
