    19
        -40.90281209
S          -0.95528290839333    1.59039995249505    1.56692771732176
O          -2.14654824637512    2.34325175425747    1.69247335221596
O          -0.31688477133980    1.86803820493704    0.17474437486116
O           0.05218056496366    1.64593585110744    2.57336438153842
O          -1.32934770170856    0.04765027574954    1.44323399947683
H          -1.91709607091775   -0.07304371761485    0.69183019329256
O          -1.23796839019110   -0.32161007839041   -1.29444733430938
H          -0.99861583920850    0.61228675878279   -1.24634908274237
H          -0.76267755544170   -0.68011569822695   -2.06336778942473
O           0.75954734530106   -1.52296517101424   -2.73833119648451
H           0.89245281497470   -2.29782099373955   -3.28664860772306
H           1.20838969697110   -1.68663695691610   -1.90085887704584
O           0.68650005217290   -1.57939598238256    0.22873946246088
H          -0.07987333026039   -1.19001126175802   -0.24303743615112
H           0.33926751553710   -1.89059047331159    1.06737029874976
O           1.87168079421326    0.78654061170554    0.76943109422802
H           0.64542075827547    1.52367867126781    0.26893637580402
H           1.65598468445159    0.97555807448558    1.69586150615449
H           1.63287058703386   -0.15114981127873    0.60012758811461
