    19
        -40.91392442
S           1.50231626551766    1.65478007852290    0.02586935997098
O           0.25435564148860    2.15991400246420    0.51923251340970
O           2.52845222002959    2.57056538919428   -0.31099212602972
O           2.03866661280506    0.55492221582265    0.92297612061884
O           1.11406236640030    0.85855610933826   -1.31504612892776
H           1.94080759572197    0.72901223062809   -1.77343436839423
O          -1.83866307324075    0.65045797137592    0.90096806527400
H          -1.12008335586381    1.30735767636183    0.74313341686430
H          -2.48980909654597    1.08729831593324    1.45224414088737
O          -0.03590806274518   -2.54115592138973   -0.55904927957119
H          -0.55537550355315   -3.34612019301009   -0.54412303557345
H          -0.56055452501082   -1.87533970521868   -1.06277798094005
O          -1.40212897870787   -0.49175671637732   -1.59004136725798
H          -1.80864595105449   -0.12650006134484   -0.78843324798823
H          -0.65790728380099    0.08843226643165   -1.78664822402937
O           0.21515011262202   -1.00019064368179    1.58181154619612
H          -0.61575009957063   -0.49653821708629    1.47529518107411
H           0.21436588343263   -1.67414609727486    0.85757230517202
H           1.27664923248014   -0.10954869004430    1.25144309946123
