    19
        -40.91183956
S          -0.63036747419125    0.55203399733413    0.77059074615919
O           0.46958554876788    1.19099552130778    1.44752746271535
O          -1.17172561495973    1.38655324674137   -0.31105706957885
O          -0.33249300391366   -0.78007796516331    0.27781791883222
O          -1.80162955908601    0.38426580772334    1.82017665529507
H          -1.85016506418045    1.22693875557494    2.26390692242133
O           2.22293254287734    0.74333124836238   -0.42390404752505
H           2.43453355928690   -0.18701419917207   -0.30797559293307
H           1.70575719900592    1.00242531320510    0.37742963436655
O          -0.03648439953728   -1.84070295998373    2.80725581397611
H          -0.88431225201685   -1.59182800887579    3.17910686993184
H          -0.06451188560621   -1.56506410599826    1.88231622838928
O          -0.24367129885200   -1.32162116642127   -2.28385288826824
H          -1.11820569458243   -1.56792287170003   -2.59148000446599
H          -0.28662804145759   -1.30516332122133   -1.29820440419134
O           0.43029014943888    1.12082482983776   -2.16657502747763
H           0.19098439377427    0.15573714189319   -2.42299824280585
H          -0.31402171773787    1.36104840184812   -1.44111141201421
H           1.28013262291924    1.03524034543987   -1.57896956214124
