    19
        -40.92123226
S           0.56400578200864   -0.82631532534716   -0.68292222727982
O           0.89921573819230   -0.60624336522977    0.79207644982900
O          -0.72296353819264   -1.42204462572957   -0.83840053938376
O           0.74845556948077    0.43295879106177   -1.37614087817119
O           1.65517231347230   -1.81841387193830   -1.13600544744394
H           2.49858400940236   -1.31248510083597   -1.03452386599989
O          -1.19111456822309    2.01772715042884   -0.43212274890818
H          -0.53897199781022    1.47433478951648   -0.91585663887604
H          -0.97384716178097    2.93391977024293   -0.61510100899667
O          -2.73516322398354   -1.19842669119110    0.93602985491878
H          -2.07510369383632   -1.46868658832156    0.27069014559789
H          -3.47883811917053   -0.84579869508316    0.44268228331370
O           3.32150597857949    0.11985582192785   -0.64073063105592
H           2.57598799422310    0.61231015721846   -1.02079250239776
H           3.25468674214724    0.21468235769165    0.31384807565520
O          -1.00324815012352    0.59153254436918    1.81036795946752
H          -1.72944125490708   -0.07258263840428    1.69757575985397
H           0.09275084411809   -0.09098640538146    1.31866989256618
H          -1.16167329232934    1.26466191363614    1.11065605634427
