    19
        -40.92079120
S           0.68884882509344   -1.05376061741100   -0.78945827921898
O          -0.06712468371214   -1.56040374691708    0.35751908352364
O           0.11125482457972    0.18548911186986   -1.29113877245383
O           2.10407010539171   -0.98513407464504   -0.53144284406641
O           0.47424933525287   -2.10700169433189   -1.95104769757200
H           0.96828461516664   -2.86500628048190   -1.65444612732365
O           2.20830763327337    0.55447218564073    1.61397570084338
H           3.09523381894226    0.91446276185699    1.67468725282133
H           2.22468395292382   -0.08798182968447    0.87169369482974
O           0.03804575700361    1.81862801777579    0.81501131686733
H           0.84680191219392    1.51014284268881    1.28745783895831
H           0.15338965601675    1.47463874272890   -0.09389801572804
O          -2.50465710704435    0.33838076926360   -1.17656052081712
H          -2.77165874547180    1.18261564484099   -1.54574450396962
H          -1.55517083327222    0.21550649118402   -1.41385097593988
O          -1.69741799542877    0.08049377805890    1.23851771394357
H          -1.02427061213334    0.90738569857065    1.21728395379378
H          -2.24434623373208    0.18644025089549    0.38998655949514
H          -1.04852422503821   -0.70936805184310    0.98145461202033
