    19
        -40.92246925
S           0.66322810202485   -0.40823651395077   -0.73467976205307
O          -0.19529744380144    0.06407109481404   -1.79596362471705
O           1.44823252956595    0.60205950351219   -0.09216868441276
O          -0.18049957627618   -1.16599834422415    0.28718105101973
O           1.59888633190918   -1.50818783265025   -1.28196075519800
H           0.98790554359483   -2.12574989428571   -1.75685346046249
O          -1.14728599884210    2.11114428565924   -0.31540163670729
H          -0.36692227210305    2.65972739177746   -0.20314940399432
H          -0.92584555027750    1.47218060189773   -1.01443218448800
O           1.16184531686633    1.31913041793791    2.48300509091073
H           1.79069764091930    0.83594779430309    3.02156417641412
H           1.41390656738606    1.16094284000627    1.55336351574612
O          -0.55531687892486   -2.55571124868632   -2.29360769312917
H          -1.08015645808658   -2.83677096505330   -1.53878038958911
H          -0.75346247054901   -1.61526338959159   -2.43239858087304
O          -1.25085663605052    0.48402583125178    1.77111572032229
H          -0.70029209998453   -0.49392654157005    0.98593797390812
H          -0.46707829192167    0.82411755838378    2.26474320180380
H          -1.44168835564499    1.17649742076262    1.09248543647465
