    19
        -40.91469044
S          -0.68336946119642    1.17867398271010   -0.21518575002375
O           0.48668288112234    0.80230604313387    0.73331451281736
O          -0.80157187398929    0.13954218916967   -1.21097924327836
O          -1.84398922877829    1.45447673324074    0.55609913698825
O          -0.16557157182397    2.46002506434138   -0.90254399365723
H           0.50098632078303    2.15982726860694   -1.57519055777430
O           1.71278250824415   -1.74161539472760    0.43443071169320
H           2.21820236261157   -1.89810398759721    1.23446549381887
H           1.54817518747999   -0.79017253805969    0.39125986951766
O           1.23466138621578    1.09553103683645   -2.60791406689086
H           0.60383340242730    0.42183104797022   -2.29354468271197
H           1.07409843413960    1.21232427262426   -3.54758891247475
O          -1.02391501139371   -2.02211304880272    0.49475824420376
H          -0.07993363168897   -2.25093041292021    0.42388794845962
H          -1.18212509270156   -1.41298622850578   -0.24136480930772
O          -0.89662955573263   -0.32091511808999    2.47973173545710
H          -1.67173289376769    0.24502709013093    2.38184397490499
H          -1.05873212300742   -1.10959888471978    1.89154900451045
H           0.02814797101066    0.37687089443865    1.57297137368544
