    19
        -40.92135403
S           0.95558589132588    1.21987552195890   -0.18376273876568
O           1.33418654605161    0.47612941655543   -1.38586462386315
O          -0.27491155835222    1.95760934873110   -0.36726337260977
O           0.94044699060738    0.36224353746937    0.99073712921602
O           2.10180143698608    2.27571460504540    0.06405105506601
H           2.00623230125469    2.86892420153548   -0.67462519306651
O           0.87983251077209   -2.24068192256612    0.52151738886134
H           1.77330258691948   -2.57550508706712    0.42508467386704
H           0.96034025992555   -1.31382958438487    0.84260857055893
O          -2.05651154679863    0.05775182431658   -0.65166342936671
H          -1.54376451821606    0.89977101650136   -0.68403056693099
H          -2.10624524009235   -0.13466271798772    0.31510732680745
O          -1.55217781376763    0.01633464447172    1.94212196594842
H          -1.84286384427912    0.81437247045771    2.38704693091289
H          -0.60528954116895    0.14638542885791    1.73905590413234
O          -0.28929410088410   -1.40129244416173   -1.58595865812264
H           0.06959259831067   -1.93215228233825   -0.79491751780970
H          -1.16496762814299   -0.85449800987682   -1.22690935079287
H           0.41470464676581   -0.64248996805746   -1.67233549025419
