    19
        -40.92136396
S          -0.89542826490511    0.09195427634369    1.05443037259410
O          -2.21031189052252    0.65820898486124    0.88318267471075
O          -0.72381332077179   -1.16194123095855    0.29977317179361
O           0.18797806884712    1.00913597939980    0.78096194297199
O          -0.76238733743322   -0.32492069522080    2.58081734373633
H          -1.65578893019866   -0.52056661667033    2.84847568825413
O           1.85488665219352   -1.67881376775910    0.83411549672396
H           2.00133143013049   -1.42146580142968    1.74595782235942
H           0.88862058205838   -1.65600582267377    0.69941610366922
O          -1.48353725567126    1.65381065550776   -1.44628386827245
H          -0.91453033912138    2.37329835702516   -1.15886389543882
H          -1.93063093439189    1.33585047299924   -0.62933503962561
O           2.03600366837619    0.30377475954679   -0.93601325804407
H           2.29833513934239   -0.50845191866420   -0.44865515549315
H           1.52598049627985    0.80319237654912   -0.25764813651142
O          -0.08292413105467   -0.40518407928227   -2.00533028201616
H           0.92433621724289   -0.10322953654419   -1.69661747689188
H          -0.40663662350028   -0.89461593601702   -1.16296237241781
H          -0.65148322700059    0.44596954319850   -1.98542116205142
