    19
        -40.91344930
S          -0.96155781162482    1.74289263148312    0.67474593825452
O           0.39764901329012    1.25121499780473    0.75469817382370
O          -1.41591280129636    1.71651534945390   -0.77697378247451
O          -1.88513478635815    1.11793319190532    1.55349220910223
O          -0.93557923068507    3.27977807662090    0.97874873623197
H          -0.26151185631925    3.67053491691682    0.42562593167505
O          -0.52256893964785   -1.26449906741974    1.07456146605382
H          -0.04309427085657   -0.41780678970811    1.12684952621788
H          -1.30001881870470   -1.13502182520443    1.62572393228923
O           1.72586255378130   -0.12817717427302   -1.28145772080586
H           1.56172897776811    0.49144742093322   -0.55638017001255
H           1.99815797334815   -0.96228343055068   -0.85388378302152
O           1.80678894743327   -2.49117507410579    0.10616972976838
H           1.61584190999984   -3.31579234605806   -0.34379651270036
H           1.01775666461067   -2.25962104545747    0.61733515415807
O          -0.82654026935511   -0.55608629704321   -1.54798049025703
H          -1.22672731987199    0.74089327403001   -1.19747735109027
H           0.16059726443094   -0.42668810893143   -1.66822795770809
H          -0.90573722451314   -1.05405870751423   -0.71177302012905
