    19
        -40.91202324
S           0.50278590781108    0.45232799293141    0.22588485245145
O           0.04918984739236   -0.09150685536917   -1.03141358345394
O          -0.46377749225363    1.19604702402042    0.97075988338940
O           1.02329811813885   -0.73777008336174    1.06927865363516
O           1.76999021234655    1.29402919425837    0.03583523451443
H           2.31813233734397    0.85595630121212   -0.66843825247871
O           2.61586341479514   -0.31856894665840   -1.81143844450964
H           2.95229241205686   -1.15407519654586   -1.47766621582430
H           1.65888332314539   -0.42224751000922   -1.93998619012948
O          -2.47816304387384   -0.41992921228342    1.77559306678063
H          -2.63326003814218   -0.30885497242778    2.71579123959537
H          -1.87820809127131    0.29901455512322    1.50645801755967
O          -0.66691467516263    2.60174132851990   -1.51542116495070
H          -0.80763755033678    2.62920245584215   -0.56583895261405
H          -0.62346261972414    1.67063550357460   -1.74840552788428
O          -0.94952640811795   -2.26525462310632    0.63727476093938
H          -1.64613424579810   -1.75434152582982    1.11268138694718
H          -1.06142602967679   -2.05055042289417   -0.29461952529198
H           0.31807462369419   -1.47585501738232    1.00367076424556
