    19
        -40.92120163
S          -0.54853578363831    0.33406944089155   -0.71933757561138
O          -0.17605756061906    1.11122764835177    0.44640049318235
O           0.16993496201899   -1.03846689783426   -0.60640822959224
O          -1.94692199679385    0.13780639085410   -0.89774011926105
O           0.06464061966020    0.95894378054878   -1.96694829563341
H           1.07674692769801    1.08216486915018   -1.86346165924655
O           2.33283808673980    0.29119306742972    0.85677761165557
H           1.43035961664725    0.66019908664495    0.91423423070090
H           2.22428913123363   -0.66170436543296    0.80231116732097
O           2.54899607947347    1.29540233955971   -1.55858374403658
H           2.64374723171689    0.89847381047758   -0.65274511950681
H           2.73134452680682    2.23366198615762   -1.46649903359711
O          -1.94411436545452   -0.18070354857820    2.03169810844553
H          -2.78542950120060    0.24363413008250    1.84752146252254
H          -1.26982534352349    0.38824494516267    1.62221676045214
O          -1.75162276682033   -2.31420802628088    0.43595747299476
H          -2.42718744291831   -2.05991603973214   -0.20172997304748
H          -0.51153792139974   -1.68929961737642   -0.21543974454574
H          -1.86166450938873   -1.69072298982299    1.19177618661592
