    19
        -40.92007367
S          -0.76962139040011   -1.07328987384456   -0.45237848525332
O          -1.56708403494779   -1.62600357947423    0.61924928267425
O          -1.10794537823884    0.34349695654392   -0.69710981083248
O           0.65158722620269   -1.24781680690710   -0.30833827681122
O          -1.19393475272718   -1.83016065593919   -1.77929281333745
H          -2.12693719196657   -1.98334176206093   -1.66379488604329
O           0.95196319941281    0.95641984762910   -2.32055410859984
H           1.15970136638955    0.13745641159380   -2.77475070431304
H           0.10437143162476    0.79950276681128   -1.86404522330852
O           2.16068067404193    0.87364188634037    0.04640445906307
H           1.97902158709482    1.14965481825826   -0.88205879917761
H           1.87935989524677   -0.06838224441118    0.04360213299810
O          -0.53198344790022   -0.35599353783855    2.64663109833356
H          -0.90197094273209   -0.94345159962483    1.94177284608548
H          -1.20192043430919   -0.29904318775079    3.33158540940962
O           0.06342439226873    1.60382881103449    1.13089523385635
H          -0.10392602197924    0.92833388714232    1.87601710442479
H           1.07473532789291    1.39431972914996    0.74064363160579
H          -0.51952149225413    1.24082814253885    0.36552187810566
