    19
        -40.91793140
S          -0.32431192322232    0.68782265242817    1.58399845139523
O          -0.98858566474644   -0.46416072985499    1.01007931423840
O           0.67991794424860    0.35043652923188    2.56647521134740
O           0.21015602486415    1.56951413475456    0.53357612829613
O          -1.44333952130341    1.52929382129591    2.31893083860393
H          -0.96085116902936    2.18300587453133    2.81772705212724
O           0.19698983584691   -0.42533281458759   -2.70903528390376
H          -0.68524115789025   -0.38094781506428   -2.24803062800368
H           0.17623360241763    0.25113607700583   -3.38894008997088
O           1.55430865492031   -1.55536201072758    0.99524000687591
H           1.43787020262543   -0.93312546497172    1.74864913972631
H           0.67010363808560   -1.91674216826295    0.86212461264802
O          -2.03785617361405   -0.21454099122540   -1.36857896052510
H          -1.69459608136904   -0.22546441724160   -0.44339518318495
H          -2.70003594282479   -0.90714245237892   -1.40898093401105
O           1.75989502293307    0.21489185812862   -0.81337494535486
H           1.18815957436924   -0.08040682146485   -1.62411627189738
H           1.14130122901809    0.90042763978014   -0.26878324292490
H           1.81988189467227   -0.58330290137648   -0.16356523548202
