    19
        -40.91493699
S           1.48495630958847    0.72267531634400   -0.45167797097969
O           1.47247065585241    0.46377939013721   -1.85846545474262
O           0.33937194337334    1.65185333890382   -0.09370766305003
O           1.50723357069642   -0.39967866682920    0.43315152734950
O           2.77662760197876    1.57594132288273   -0.14442533486099
H           2.92315482269351    2.14851077457712   -0.89426145716657
O          -2.22472270294343   -0.45328444317943    1.63428221859229
H          -1.75246835077114   -1.14767581992198    1.10641824064094
H          -2.82375708305667   -0.01784878325738    1.02533110378302
O          -0.87656267081892   -0.77906528037614   -2.36079600593802
H          -0.05167606857574   -0.26910051247748   -2.27534519974490
H          -0.79487194874668   -1.29230520821030   -3.16744120093963
O          -0.73999226221484   -1.98351570262490    0.07806279815158
H           0.15197654437117   -1.66357827966028    0.27428439460031
H          -0.93010043921149   -1.66928477141593   -0.82601754455883
O          -0.12078393399186    0.94517344471195    2.22102023499932
H           0.09514364804511    1.45219365066391    0.93337841025601
H          -0.99456927336898    0.45631883099421    2.12524858673165
H           0.55856964702681    0.25889139882911    2.24096031688413
