    19
        -40.91051895
S          -1.15028107475034    0.25664061258012   -0.58144574288058
O          -0.62015279621346    1.15934671815522   -1.55913091879785
O          -0.95904014949974   -1.14182124338877   -0.76847633169045
O          -0.74364004226829    0.71087897570959    0.81284003146692
O          -2.72191635555932    0.48402094108378   -0.56635274690345
H          -2.88705906945561    1.41590852811817   -0.69578612414092
O           1.72313853491194   -0.06769612569223   -0.49219729372917
H           1.85211588822807    0.86867264123006   -0.26739083214635
H           1.25800046878017   -0.07460938344685   -1.33067828259347
O           1.45329493920104    2.68553916716555   -0.64668231714186
H           1.85182661806419    3.13952910815867   -1.39185866832113
H           0.61965785836718    2.30430457944689   -0.96743143278569
O           1.03163957031380   -2.46873167371216    0.60905486538558
H           1.61265892255487   -1.72292540772122    0.38913002291091
H           0.35921367178678   -2.44398195614845   -0.08575163821475
O          -0.63864466822504   -1.33892057386411    2.24162073077031
H          -0.68321335969019   -0.10121474055244    1.46885982396635
H          -1.44687443858074   -1.83018013554908    2.07446844552609
H           0.08927548231173   -1.83476005148402    1.75720838938385
