    19
        -40.92079114
S           0.07033643242196    1.05606548348683   -1.04242096515638
O           0.46616721208958    2.29910210394977   -0.43235647133544
O           1.16383498959775    0.08389767957928   -1.09780002698178
O          -1.12924603384815    0.46265237095443   -0.46803437820244
O          -0.30769946263729    1.37143129212363   -2.54662346039978
H           0.43647409784002    1.87567917191137   -2.86042811884821
O          -0.36680330101009   -0.50695115445300    1.89511128760637
H          -0.88758320918169   -0.06899297515871    1.19163914109660
H           0.31910684271890    0.16113910222557    2.12974536883448
O           1.34309510194807    1.49937914119998    1.92946898781393
H           1.33838801958270    2.25686505815376    2.51774500669340
H           1.10938700561271    1.84274601560203    1.03999315888982
O          -1.54361078492176   -2.05389148279489   -1.07941422904411
H          -1.51345633525146   -1.07031006707127   -1.01129872241580
H          -2.36386514326135   -2.33146002889528   -0.66658622022653
O           0.68314009726310   -1.98027459732847    0.18056079381648
H          -0.15001571958978   -2.25622086962885   -0.32919821601824
H           1.02730025143110   -1.16422384137824   -0.39127564944731
H           0.30504992455070   -1.47663235392291    1.04117270481658
