    19
        -40.92219807
S          -1.09627202353922    0.95086463266552   -0.36263010226611
O          -0.65625638369138    0.54503400021500    0.96345411627716
O          -0.25338334337366    0.18484561775732   -1.40554186172712
O          -2.48664690887805    0.79358926242682   -0.59268657863580
O          -0.64791071401308    2.39692913434852   -0.61324106686569
H           0.35268501796981    2.36076558072930   -0.58136826136905
O           1.79715438417114   -0.30170806596840    1.05470067920319
H           0.86500463773953    0.00716044293418    1.14734453697803
H           2.19690473474628   -0.22860719105595    1.92338668763478
O          -2.04964069242226   -1.75683455508409    0.79027029993430
H          -2.78832112493223   -1.48951916221218    0.23636442889219
H          -1.69852610272138   -0.93022261513195    1.15575884278903
O           1.89131776885545    1.86635871563222   -0.62310812072658
H           1.98563144101419    1.52500917293968   -1.51642341979514
H           2.01682731231420    1.09903121508609   -0.02769364472604
O           0.25080286470230   -2.11269689895906   -0.51850046735377
H          -0.05064391466488   -0.79579925327153   -1.13548457094097
H           0.94822700032939   -1.87007489625516    0.10782113432591
H          -0.57695394438792   -2.24412514708669   -0.00242263271278
