    19
        -40.91955059
S          -0.95866316266644   -0.24761152749321   -0.61757437150844
O          -0.22672005666935    0.91914113478245   -1.05362300570248
O          -0.31924788171364   -1.49887422300905   -0.85460961623444
O          -1.30122761740040   -0.07835653419604    0.87440241548463
O          -2.35784583380381   -0.23744335885446   -1.26541932347747
H          -2.69151145648648    0.67777208647366   -1.08643877977431
O          -2.49725146033898    2.23185530151868   -0.47363903173176
H          -2.53298154988185    2.20207831412663    0.48656418669901
H          -1.55769368631061    2.19386537066907   -0.71614296048919
O           2.47684131004239    0.67783136234811   -0.93112517807151
H           1.52299030828361    0.86811952692026   -0.97820296043890
H           2.79878242595932    0.68783953079161   -1.83428992092761
O           2.10766641061673   -1.65551561584540    0.38601026503562
H           2.47755529353783   -0.84149907199967   -0.01042189491420
H           1.35668814346670   -1.88692377329925   -0.18332279734182
O           0.59817300910870   -0.85040022795079    2.31352134933998
H           1.28969772267942   -1.15418580956660    1.64243721729327
H          -0.52023668419293   -0.37278380611804    1.50125665355201
H           0.33498475742810   -1.63490865730490    2.80061776038478
