    19
        -40.91793095
S          -0.40460848559864   -0.48204391063061   -1.64151092114703
O          -1.46591375864746    0.08931988306781   -0.79686967854124
O           0.05692787940086    0.45854785347659   -2.63655706053014
O           0.65793614716873   -1.04499571748628   -0.83407962678669
O          -1.07339746142035   -1.69227893455575   -2.40856455426482
H          -1.63904669136566   -1.27987363832345   -3.05580187365382
O           0.06160942824539   -1.90858461967629    1.55796166547514
H           0.21058325563270   -1.64147269656212    0.61968143432256
H           0.76397040101820   -2.52717221911857    1.76731127446155
O           1.64479052218144    1.53898436259748   -0.85483744787496
H           2.00346306412346    0.68365551499100   -0.59019297949285
H           1.16155512023821    1.33760533918559   -1.68810179178215
O          -0.04345143509368    0.43299252985809    2.71624640625266
H          -0.82502704406233    0.43064848980279    3.27250610206778
H           0.02493260346141   -0.48394040867239    2.33226290418741
O          -0.40975234126147    1.80648314920203    0.61279453672653
H          -0.97286644818464    1.11382449783726    0.01929508756742
H          -0.23555428804659    1.31664836430147    1.50791750114908
H           0.48384952223797    1.85165213069655    0.10053903185194
