    19
        -40.91889813
S          -0.23772169405222    0.56782388714907    1.36523878057380
O          -0.45628233731485    1.99221342629496    1.22080512424918
O          -1.18488976349906   -0.19687696863633    0.52532108867344
O           1.11515755326134    0.13778783485876    1.13317777555723
O          -0.61289483522896    0.20738146388182    2.85740873685586
H          -1.30996517645627    0.82351179243512    3.06168476328286
O           1.61011184743322   -1.35044437370760   -0.95611442924531
H           1.70863340225299   -0.81491569099537   -0.13185753666484
H           1.08240593607832   -2.12346197876472   -0.66149743515788
O           0.48151692193771    2.46120250186109   -1.15843628302987
H           0.02353146223481    3.23107663120688   -1.50260193255628
H           0.21480881804322    2.37857637347733   -0.20809012917953
O          -0.38489792484998   -2.73322867409275    0.14432639788285
H          -0.73545670082999   -1.86600769235545    0.42891338266437
H          -1.13622844890574   -3.24898368600662   -0.15192080619057
O          -0.21059885010261    0.09078792086085   -1.78030438744351
H          -0.75711915584781   -0.03887814010543   -0.92219885391553
H           0.12138238545263    1.05233123833460   -1.70163144386245
H           0.66850655054267   -0.56989586565051   -1.56222282245052
