    19
        -40.92003351
S          -0.68468974956643   -0.04024911044402   -0.55003855557438
O           0.69512182898758   -0.38131132716369   -0.80347060484057
O          -1.57207208464838   -1.25788115518429   -0.81867272750314
O          -0.90428841679740    0.46517788676146    0.78158132349205
O          -1.19414275430113    0.95577280221393   -1.59383732413379
H          -0.66706319336616    1.82998032999146   -1.55068391664208
O           0.31389639225191    2.99552492402905   -1.40517358503092
H           0.86864643453860    2.70372325394892   -0.63486801328925
H           0.90072723238994    3.04294417262471   -2.16396015573165
O          -0.29235416559553   -1.68020871928893    2.26504643581172
H          -0.50916261760547   -0.82545718501951    1.84501930810813
H          -1.01997366600442   -1.88424646423169    2.85607077353068
O           1.59761474701635    1.77188158398458    0.53688778327217
H           0.95391426080561    1.70590446057362    1.24946172615948
H           1.55390690227268    0.91321332099426    0.08088213059946
O           0.08733640099196   -2.99039983874524   -0.03054136335610
H           0.84407473174341   -2.51687328442194   -0.39674186951749
H           0.04044614429225   -2.72255582922129    0.91479345831616
H          -1.01193841643693   -2.08493983175201   -0.58175483359380
