    19
        -40.92052676
S          -0.81937077733470    0.13681605653275   -0.12464366177692
O           0.20792040759224    1.04583775169377   -0.56862539472540
O          -1.69455374353352   -0.30828774710910   -1.29980310429076
O          -0.30975797521810   -1.02900343780893    0.55342064906870
O          -1.80863688690742    0.89347991084046    0.76623764850368
H          -1.26616191826678    1.60264609186996    1.27519402913416
O           0.86955173673581    0.07674571227523    2.70341202720613
H           0.55165710588928   -0.38258132737627    3.48348594216412
H           0.55472445922761   -0.43498147141268    1.93441174000169
O          -0.11155708915628    2.40722359512882    1.86286579410680
H           0.35197469520006    1.68575356499306    2.34634173294325
H           0.39461829975929    2.53876645813250    1.05247163525961
O           1.54417007127508   -0.47969928850161   -2.33581916805495
H           1.19987315381863    0.14191690547402   -1.66695798562481
H           1.62713750775403    0.01830852810003   -3.15171478759059
O          -0.32569866493027   -2.33403365813107   -1.92962833387938
H          -0.14552862798996   -2.58061206767238   -1.01480061431363
H          -1.28264813196941   -1.17675836219328   -1.66351458788476
H           0.46228636804137   -1.82153721476551   -2.22233357025057
