    19
        -40.90355602
S           1.05067660412994   -2.20974844290467    0.02744520906857
O           1.11218683987976   -1.87116190792941    1.54233393303998
O          -0.31919118196298   -2.20558257267377   -0.38640672138410
O           1.96566834298444   -1.41624433775796   -0.71584696608223
O           1.57562849122669   -3.68688941299564    0.03398378086037
H           0.87225976612900   -4.25223753875065    0.35050847386696
O          -0.92295771246157    1.94522224938673   -1.86678215982303
H          -1.47041051965681    2.08338597699194   -1.06777167592591
H          -1.08163554467835    2.69481796283154   -2.44164984655439
O          -2.06124279799370    2.30353804975516    0.60033149020330
H          -1.70567235323869    1.48780316371316    0.99340858607429
H          -1.63915163872143    3.02860246555915    1.06531389572750
O           1.19959106714988    1.20389607329465   -0.36148809902201
H           0.59665594925858    1.47831323449849   -1.08124849051179
H           1.66549028778905    0.41138939363033   -0.66716789756930
O          -0.53530361641011    0.04495841417639    1.16288751768149
H          -0.93833635118133   -0.54350628239794    0.50821290432404
H           0.49397761801797   -1.08544862497108    1.65375420928606
H           0.14176672970392    0.58889210645577    0.65018182671306
