    19
        -40.92218954
S          -0.83886290259543   -0.53116992247736   -0.59425812302207
O          -0.78727879333913   -0.96067178246675    0.79947012765823
O          -0.92346144492918    0.92260227953953   -0.69113101631853
O           0.29751389967941   -1.05097036969046   -1.35487212120368
O          -2.11646351589043   -1.13803672186474   -1.24419759429367
H          -2.83130797080857   -0.75393405022780   -0.69508280378591
O           1.59317905276588   -0.93349570333768    1.82640656766336
H           0.64034086365201   -0.92746381202517    1.53967505982242
H           1.78354323148332   -1.83457514207544    2.09603020514136
O          -3.21301430466090    0.29932272205854    0.66777259681269
H          -2.68901317149227    1.02620744865880    0.30576538959975
H          -2.60870886606544   -0.17027698392934    1.25775833017197
O           1.37354587879874    2.12194731290349   -0.59694766946747
H           0.44723822679997    1.75859060538769   -0.58958664805283
H           1.46428078243177    2.60079079231609   -1.42355210406307
O           2.41355854325194   -0.17240009404653   -0.43610619603753
H           2.24986029545258   -0.46244218764583    0.54401808003156
H           1.58778246281585   -0.62351973337409   -0.93081306894506
H           2.15726772274755    0.82949536235731   -0.48034902176108
