    19
        -40.91793137
S           1.10452157463296   -0.98910201889379    0.94474401426100
O           0.46404243452304   -1.38633189421542   -0.29201473394129
O           2.48730599458352   -0.60186539229746    0.78535259652666
O           0.32148782939809    0.04640185821485    1.63855894980177
O           1.07186153479163   -2.25459735303367    1.89216742424968
H           1.63484028369536   -2.01866288862529    2.62452832203826
O          -2.17657815731012    1.43809484536241   -0.87026120260897
H          -2.87328904198615    1.79201575516155   -0.31380125456588
H          -2.21140214018855    0.44841347637421   -0.76110193200168
O          -2.13113572616852   -1.14517806729735   -0.46783348255117
H          -2.37827062817294   -1.75423517340578   -1.16623566853721
H          -1.16691914462032   -1.28918629462997   -0.31515424387078
O           0.11916121740484    1.94507110875965    0.08805355427315
H           0.18485273727754    1.19455329330890    0.85108228932737
H          -0.81267643002471    1.81198877750047   -0.34245303748412
O           1.84083799788396    0.76266633645538   -1.35609751842387
H           2.34374869281011    0.35241014455247   -0.61659201408883
H           1.35080530536324    0.02220288888348   -1.73292063933951
H           0.82680566601295    1.62534059785847   -0.59002143308277
