    19
        -40.91167198
S          -0.20208564050533    0.75309284164797    1.35734560257489
O          -0.53750818199036    2.13643391206035    1.24971755153173
O          -1.22050890403226   -0.07949248251763    0.57411583150741
O           1.13609521316373    0.37364238358591    1.02624060186236
O          -0.44544848760478    0.27789315827834    2.83379547342463
H          -1.23580677354530    0.70381856147866    3.16024048069407
O           0.76700221596139    0.80646068052975   -1.72445187176421
H           0.58513190244833   -0.14584598301170   -1.90073287075504
H           1.19092660291318    0.82543046399346   -0.85788230838135
O           1.59017573506902   -2.24787037032598    0.54502262218993
H           1.46309397111030   -1.32831361573915    0.83830488527204
H           2.53588316899360   -2.37346062112311    0.44575896171016
O           0.04720756664526   -1.77192842101478   -1.64081832102177
H           0.62234490707563   -2.10478716544376   -0.92343030729776
H          -0.83384598231059   -1.72935550246791   -1.26228493890383
O          -1.64750270837215    1.58163191258308   -1.20882273785348
H          -1.52441594177454    2.36461586808340   -0.65761047895207
H          -0.75677217284114    1.40580263121453   -1.63221509947429
H          -1.53396649035819    0.55223175809867   -0.22229306636114
