    19
        -40.90906094
S           0.41827082580357    0.16257662858068    1.61843887977932
O          -0.63918665461703    0.96157612792037    1.05004884122971
O          -0.16931179824717   -1.08771579978308    2.27054941419372
O           1.50394067378814   -0.16166715993155    0.76627721981415
O           0.96644186504999    0.95263289991650    2.86276103056066
H           0.21871113443199    1.22091045939983    3.39432729597242
O           0.26410665191498    0.23297866870215   -2.74287624273709
H          -0.03430981015334    0.47304608479834   -3.62168409990117
H           0.32981350602421    1.06255536745024   -2.23082594292337
O          -0.06422580921335    2.43470976260637   -1.16330561601009
H          -0.18971318665259    1.95192411930240   -0.32794265921673
H          -0.85455956704581    2.96519665777416   -1.28558600275907
O          -1.17412239617631   -1.03303604302987   -0.84840507746650
H          -0.66285294068142   -0.68923466214930   -1.61216526479702
H          -1.22618512802547   -0.30161587406029   -0.22082231776001
O           0.36079533035887   -2.68642036201825    0.44913578259479
H          -0.29201081003014   -2.25297247958666   -0.16871442202189
H           1.21983204053112   -2.31988239251750    0.20599153527080
H           0.02456605285522   -1.88556199373868    1.60479765652981
