    19
        -40.91923747
S          -0.38044762696728   -0.85802605552715   -0.24417754430799
O          -0.67065676871960    0.29436109477719    0.77457687943128
O           0.78334795078669   -0.48654862158832   -1.01194898573134
O          -0.29828319697638   -2.08599116553748    0.47176847332415
O          -1.61288768881453   -0.81324683870132   -1.14519807168947
H          -1.41890518115680   -0.09922932169686   -1.86264139863386
O           2.50535826795924   -1.15822866263611    0.94844235131687
H           2.58312796216921   -2.10871277465973    0.83693879949069
H           2.04957434773753   -0.83711228542544    0.15005600807763
O          -1.10750171316600    2.65875941528299   -0.60147867755658
H          -1.96006011574180    3.01531952574815   -0.34417339582702
H          -0.90465376167215    1.94068636748656    0.01825382315340
O          -0.79159114864872    1.00400088091096   -2.68526575341078
H           0.11856252023407    0.70950373154225   -2.54279038592938
H          -0.91137071461779    1.78605047974777   -2.10340828301135
O           0.59423028853977   -0.66864558914074    2.72872278878938
H          -0.20682541493026    0.02544513443100    1.65269197362478
H           0.18216383727829   -1.53948192718501    2.71790082667365
H           1.44681816649786   -0.77890339769032    2.24173056174053
