    19
        -40.92219814
S           1.43970106168398   -0.33466346349898    0.22035864031628
O           0.74494602413698   -0.42195509980616   -1.15623564010901
O           0.44943387107358    0.07721064206274    1.20343981636636
O           2.12120630026345   -1.53579151275017    0.54233268171941
O           2.42190894721187    0.82190766694651   -0.00898786546861
H           1.85869763238193    1.56200679313478   -0.38125171306347
O           0.67872076353549    2.41008105910938   -1.09006479853250
H          -0.18717862650688    2.18270656198079   -0.69320993739126
H           0.66163971139984    2.05267561057267   -1.98191608386466
O          -0.56425893583839   -2.41864645723221    1.32286069344837
H          -0.22325524864065   -1.55939973138233    1.61528763608151
H           0.21763689474188   -2.94853461993586    1.14441297510978
O          -1.53161810908740    1.42926363854202    0.20618929492525
H          -0.83205915082527    0.93893301027083    0.69906964854393
H          -1.97431139378030    1.99024904872850    0.84582641942825
O          -1.61215574532109   -1.23179012841714   -0.82723598736402
H          -1.45181622255955   -1.80565594710854   -0.04368500083043
H          -1.99939500857259   -0.40430173607714   -0.50678216572619
H          -0.21784275533492   -0.80429532515033   -1.11040861339533
