    19
        -40.90330786
S          -1.10349165898673   -2.41556470973484    0.44071933777392
O          -1.62865656267762   -3.72814560713082    0.49704906883695
O          -1.43814357027537   -1.65398980621343    1.74118017311609
O           0.26447548018842   -2.20018155228663    0.09401202828682
O          -1.95691057145748   -1.60603040155539   -0.64560284604691
H          -2.83400450451037   -1.98483496093261   -0.64549301053544
O           2.47614429832175    1.69688809380318    0.56045910005888
H           1.73843690204975    1.27420183403209    1.03657448129588
H           3.22337335767135    1.09985097309307    0.62598517626443
O          -1.07585424464693    1.19514439599095   -0.73557789355333
H          -1.38675426187128    0.38576231664917   -1.15120697262766
H          -0.31313031435295    1.51856402367167   -1.26720035099333
O           1.22058142095613    2.04530688652620   -1.82700948892448
H           1.76222314562742    1.94933078452931   -1.01575306328068
H           1.25641421936765    2.97398384611343   -2.06111123225367
O           0.27179278219548    0.17668535235760    1.25319436009585
H          -0.83357006035706   -0.84543417207408    1.75927364531000
H           0.63607142298340   -0.57094819277571    0.74525514461391
H          -0.27899730022573    0.68941089588846    0.59525231260412
