    19
        -40.91689953
S          -1.43715691090785    0.90293050834767    0.69795922919072
O          -1.38777215401731    0.27231768121624   -0.62598372278304
O          -0.44076280503693    0.25993266073683    1.57524616224405
O          -1.33197017031122    2.32596880675821    0.64514069927594
O          -2.83224173975459    0.51987615592902    1.33079669091103
H          -2.75373810008356   -0.40401139178382    1.55518400701681
O           0.56866802805894    1.93798666402805   -1.24898940847287
H          -0.16168862325402    1.29194915296759   -1.33566933794649
H           0.15238733484173    2.66825286861064   -0.76976913891291
O           2.07409296855601   -1.72651628151392   -0.27790873622934
H           2.32968123660096   -2.32376877820107    0.42780965439545
H           1.12942366537898   -1.94573466734201   -0.50003245557180
O          -0.46695638632265   -2.15907864334263   -0.78325149365667
H          -0.67402293269622   -2.44100665153585   -1.67646844960731
H          -0.85590215413926   -1.25472865048152   -0.69140240915248
O           1.77207444186263    0.64673895930724    0.57426067542442
H           1.45651790833238    1.22328513398793   -0.22143264081846
H           0.85990265778770    0.49643918831188    1.12136032983196
H           1.99946371512461   -0.29083270596506    0.20315034490373
