    19
        -40.92071420
S          -1.02321300082660    0.69145697434390    0.82023408114463
O          -1.14178341918601   -0.71251216820470    0.50155702705255
O          -0.68705141491981    0.95704045596024    2.20002852239558
O          -0.08414680275093    1.35532502477120   -0.10595090345080
O          -2.42935174032127    1.36108029070461    0.55451298279718
H          -2.43517412039686    2.11880105727973    1.13248846424101
O          -0.32194040999054    0.56086901397241   -2.65723172194641
H           0.10246092610535    1.20255911459024   -3.22867612505251
H          -0.35500147886087    0.95960506528253   -1.76495810364148
O           1.09640058815564   -0.95846507312412    2.25565777281827
H           0.48343776954223   -0.20427905988008    2.42454964300095
H           0.52518676454721   -1.72530922815208    2.15266952053093
O           0.36820476383337   -1.69220442387241   -1.41337458523877
H          -0.35453738977006   -1.56633151909222   -0.75621108507316
H           0.12872774290964   -1.07778019635628   -2.13908856585739
O           1.85548212908281   -0.24695424361054   -0.06195240433195
H           1.20142649326802    0.54342718339653   -0.10485168317516
H           1.72689360600153   -0.59382347719043    0.89944435899930
H           1.34397899388686   -0.97250479069230   -0.70884719555592
