    19
        -40.92174069
S          -0.31817926132763    0.76648442376053    0.33674819916424
O          -1.26939152842046   -0.15718211000287   -0.40145734139986
O           0.02754210644356    0.20123000523632    1.62397624810786
O           0.80533867335875    1.09857668398934   -0.48935223276724
O          -1.16093837175926    2.03944241778221    0.56789860863341
H          -1.74868752090768    1.83765529245927    1.34138320679223
O           1.81697594397526   -1.49280493114456    0.50379509944532
H           2.43174142758017   -0.86199945696505    0.11992703116363
H           1.25166619903921   -0.98001362103282    1.10476449566547
O          -2.18768486171991    1.10158498321392    2.75976642037635
H          -1.41825395612880    0.51746604375841    2.62644179755331
H          -2.02606974071198    1.59632235506786    3.56712770349591
O           1.24331187771084   -0.07379686374190   -2.87201511041423
H           0.80439109986287    0.43319585399064   -3.55697190745889
H           1.20474094733523    0.46659932517678   -2.06017168694162
O           0.05955240613085   -1.96826100315893   -1.42966536117742
H          -0.76327404798607   -1.00100552270182   -0.86520987239888
H           0.50122666145248   -1.46071413528138   -2.14932156703069
H           0.74599193601572   -2.06277975059533   -0.72766374093161
