    19
        -40.92052673
S          -0.45553833546260   -0.06019473262089    0.70425913872960
O           0.01789896587622    0.01712796027347    2.15858422142378
O          -0.21843808966302    1.18815665917534    0.02300614413479
O           0.16117241620367   -1.19630853053346    0.06591549810409
O          -1.96484458720694   -0.27345276659798    0.85098162309640
H          -2.40427760362416    0.13672975443849    0.01742686272425
O          -2.61904712856149    0.75216673669905   -1.36136481560244
H          -1.96993901858127    1.46292296787071   -1.30057831005113
H          -2.19344452482099    0.05594230583501   -1.91201832094609
O           2.45431305495876    1.41014753862638    0.22836912134545
H           2.65224858551531    2.28363807760975    0.57243898064026
H           1.50174619516106    1.40644535616607    0.01628187349926
O          -1.11207967116658   -1.23357715316755   -2.30333287327448
H          -1.43761844491850   -2.12422180630233   -2.44943686298891
H          -0.52646441106666   -1.27831758237355   -1.52399327085580
O           2.37506477996461   -0.78369858224572    1.73841860878714
H           0.98767056012671   -0.32288588456779    2.17261012770662
H           2.10656534409541   -1.44460939844883    1.08931617288568
H           2.64501191101280    0.00398908074217    1.21311607080641
