    19
        -40.92159002
S           0.43010954598064   -0.76799573316087    1.18497873158528
O           1.25299913466911   -0.40397752080890    0.04141104395053
O           0.72807226291372   -0.06181860243673    2.40117435975051
O          -0.99530434450617   -0.70510304177790    0.83590408094821
O           0.74912392481789   -2.29789727830661    1.44820919402812
H           0.50800317589040   -2.43288783886312    2.35952506486868
O          -0.63714075012142    2.06437085005075    1.56024594224709
H          -1.53256790420353    1.73311686046461    1.66127551642359
H          -0.06658098780639    1.40459546581757    2.00074321895527
O           0.54640473075275   -1.47601394334331   -2.24052555885905
H           0.94675437918025   -1.24582107719615   -1.36906856841355
H           1.18762672420940   -1.23136940462451   -2.91084102424018
O           0.25455447368999    1.87615886567626   -0.91949426382896
H           0.91843419521229    1.21385948281088   -0.64324625816477
H          -0.09393224878697    2.21999470817403   -0.06301668556708
O          -1.35389162737126    0.06292295788911   -1.49157568505697
H          -0.74500480996341   -0.58700365684842   -1.97948851701675
H          -1.33886004947531   -0.31066468540241   -0.50497461998669
H          -0.75879982488408    0.94553360189639   -1.37123596165724
