    19
        -40.91907663
S           0.87577902539807   -1.27682236287035    0.62007313341749
O           0.15778944855093   -1.93915934043601    1.68376784198639
O           0.27306648533272   -1.41942762540881   -0.68503699937415
O           1.12037553074745    0.14743442121920    0.93315695350936
O           2.31249169130130   -1.93654708444002    0.54209853252426
H           2.54499123109378   -2.13814117096430    1.44479534664291
O          -2.10498965093621   -1.08705383186191    0.66974007846415
H          -1.84730622708675   -1.34074514417115   -0.22596828058537
H          -1.44566692480011   -1.54553915573586    1.23753096512149
O          -0.92351684571778    2.14076502219255   -1.44574506787415
H          -0.73671956680011    3.07440682251154   -1.55933922144040
H          -0.09040496423422    1.64576688083518   -1.69774803500923
O           1.28636656850488    0.78584428745602   -1.72183560645218
H           1.69598410827246    0.92547314406996   -0.85801570079563
H           0.93692244087768   -0.12424171830956   -1.65016475909035
O          -1.11453014888247    1.22465285901571    0.90180623342419
H          -1.12784656143347    1.66075244086344   -0.04214956988581
H          -1.67885285288084    0.35258855933791    0.84208187283378
H          -0.13393279724133    0.84999299663510    1.01095227235863
