    26
        -50.46846577  Gyration_radius:  2.40729274562 Dipole_moment: 4.099
 S           1.07821103948646    1.43403769960685   -0.84114793705961
O           0.91110696688142    0.01436106835134   -1.12190897878856
O           2.40835132275292    1.80821632543838   -0.45917545328354
O           0.77483406921327    2.17996371061073   -2.21394273880843
O           0.04816501361687    1.89154440072766    0.09282886942818
H          -1.41788720695086    1.29648397238402   -0.04274758206764
H           1.48201992832418    2.81511745132409   -2.25033715149344
O          -2.32355650414258    0.88034398914310   -0.03101174687022
H          -2.93761248777568    1.59826452820947    0.12915749762162
O          -0.39644691174310   -2.63328520131966   -0.41335391891601
H           0.53408762823875   -2.42041227058412   -0.52951174336502
O           2.67869990135938   -0.69031337826627    0.71955047934174
H           2.09403536940394   -0.55479695386650   -0.05044262783861
H           3.32386326598180    0.01936033303140    0.64261633183014
O           0.75042214092057    0.40311291262297    2.20311937313526
H           1.55034433498124   -0.05240225175255    1.85414678313076
H           0.56579032235650    1.11614109896722    1.56189808428643
O          -1.41863808218597   -0.84453088132826   -2.08588298720924
H          -0.85694135658143   -2.15006490481231   -1.14416894907775
H          -2.02266591159120   -0.28717763977995   -1.57907514059507
H          -0.54129930068311   -0.43487508668731   -1.96157013601646
N          -1.27587666318375   -1.09221452369118    1.52439471746868
H          -0.43576587468852   -0.53722417530110    1.90858384732443
H          -1.78997708341876   -1.55299428739942    2.26650674119717
H          -1.87031700124359   -0.40864303239747    1.01488520039631
H          -0.91294690932746   -1.79801290323106    0.80658915623072
