    26
        -50.45192232  Gyration_radius:  2.44662405433 Dipole_moment: 7.010
 S          -1.52199177167576    1.19916617565321   -0.90240559429099
O          -2.15092996273595   -0.05085160119066   -0.55130563405424
O          -1.97715252742018    2.33766111739333   -0.17878528494646
O           0.02218223811030    1.04005687445374   -0.66905623932560
O          -1.58634103226519    1.42503189257348   -2.40658428392101
H          -0.95861908683361    0.73518650369764   -2.84455878621734
H           0.14855570053444    1.30490311806220    0.29852482812778
O          -0.10597826936505    1.71314194961420    1.78353543697613
H          -0.81426133791351    2.33873792148019    1.58574119414639
O           0.91644644045384   -1.92518632183228    0.96338008535908
H           1.33594348777158   -2.66969523428143    1.39667636412355
O           0.10498762378057   -0.26964074852070   -3.21284639921774
H           0.91159614904329    0.10696636807740   -2.85212958724833
H          -0.11150772233760   -1.05474146358876   -2.63393837889106
O          -0.54997842040118   -2.03220230045932   -1.40557576934825
H          -1.29954522913953   -1.48954606303505   -1.10404181036994
H           0.04643658585549   -2.08445137867542   -0.64082745042829
O          -1.29120288857905   -0.60009116744588    1.96565460882735
H          -0.57838100720789   -1.21086089138017    1.70520799665385
H          -0.56503359479995    0.86906814495390    2.05722754763677
H          -1.83584633994154   -0.49218820964677    1.16820796512763
N           2.47463849527740    0.23840524700665    1.32353327743098
H           1.83919937085372    0.86975987717490    1.80085549052538
H           1.52522313594656   -1.14550520899661    1.06435702607776
H           2.69089498018240    0.65589013819833    0.42691059773226
H           3.33066499280086    0.19098527070587    1.86224279951518
