    26
        -50.44203010  Gyration_radius:  2.54416032596 Dipole_moment: 5.604
 S           2.33263007418867   -0.84421721620818   -0.54637054320139
O           2.25831205022538    0.49212175861755   -0.01806365728677
O           3.52071909101721   -1.57718927900844   -0.31723648559034
O           1.08878959606612   -1.62828925814558    0.00080508261113
O           2.02777143474302   -0.82418721160144   -2.06214808155815
H           1.17147279631390   -0.33140001063038   -2.21459332694831
H           0.75157694357460   -1.16888008071073    0.82939498748578
O           0.05008883972315   -0.56272480898232    2.09167600652513
H           0.15916640924308   -1.15136030407807    2.84029219901530
O          -0.18278384071670    0.49461679056002   -2.43548387556556
H          -0.17983560165024    0.87436099790304   -3.31606790227992
O          -0.32232554928379    2.18883590025903    1.81430405813730
H           0.37035511118488    2.70849850159340    2.22642655679749
H          -0.07394983215451    1.25813180983923    1.93993828852415
O          -1.47617610462866   -1.67696521031691   -1.24095415011692
H          -0.64374204149969   -2.03174816803240   -0.90648242317420
H          -1.22170278162229   -0.92091151007957   -1.78868380833764
O           0.49552432240125    2.32301814743591   -0.77632174971370
H          -0.01271191991790    2.39993873705912    0.05384393475289
H           1.29042514790260    1.81654412942968   -0.51397865800060
H          -0.02397237000266    1.26190427779149   -1.79579909588070
N          -2.38305499310747   -0.62605484105991    1.22697774286471
H          -0.93976741245382   -0.61790028155185    1.80026084509932
H          -3.10628099110393   -1.15016064379035    1.70129860094013
H          -2.70324709130140    0.32708188251398    1.11136120385211
H          -2.24728128703055   -1.03306409879850    0.29560423103832
