    26
        -50.45147873  Gyration_radius:  2.46504364007 Dipole_moment: 6.101
 S           2.30042004652443    0.61404042346613    0.28284128613147
O           1.07362102158308    1.32911343067125    0.56649480594635
O           3.41594251535303    0.95025799659481    1.08682667546159
O           1.98893812996859   -0.90915032813655    0.35567648673348
O           2.63503862695971    0.76472057689301   -1.20914873713043
H           1.84605955862813    0.36310631061539   -1.68353374227148
H           1.34554125527813   -1.13592573615399    1.09699331464409
O           0.60156257400139   -0.35347097841889   -2.32076631888357
H           0.95124221856465   -1.00845249785655   -2.92734054895099
O           0.28622527067114   -1.49834643493772    2.18125506332135
H           0.71524201431668   -1.59697983091307    3.03307006141584
O          -0.72593128188407    1.93563452192343   -1.34224780384791
H          -0.05058313460023    1.88957308669779   -0.63978764041914
H          -0.41063934464109    1.33517998199470   -2.02758589944716
O          -2.65569353281206    0.72475444862837   -0.00124214900813
H          -3.44717148204386    1.26336127133564    0.03190689887046
H          -1.99789601372675    1.23013102580455   -0.54690420380183
O          -1.00582036408021    0.73348316444611    2.18156285754506
H          -0.26772001547772    1.18746827136763    1.74028519919021
H          -1.71132297603825    0.69387569941561    1.50620456830231
H          -0.28797884154952   -0.67156460311102    2.24913515723291
N          -0.97752189653365   -1.63608521174709   -0.67087948298487
H          -1.70554129752305   -0.97253239633557   -0.41935182760419
H          -0.51256657952496   -1.91511213393638    0.18533359732871
H          -1.42871764129998   -2.45386639806212   -1.06129391614756
H           0.02527118212762   -0.86321364237465   -1.64750368154710
