    26
        -50.45954674  Gyration_radius:  2.42725550586 Dipole_moment: 6.983
 S          -0.79333765653685   -0.23660737794909   -1.69521482694166
O           0.12919592013066    0.92522907605851   -1.55446701152490
O          -0.63921714810139   -0.89741394210266   -2.94868527112140
O          -0.57762137716267   -1.13151603474987   -0.54685456955565
O          -2.22419714065208    0.34014739622637   -1.54645001723120
H          -2.21616767984272    0.65602673177853   -0.60280369362136
H           0.79224380036199   -1.91435741078447   -0.95594082283126
O           1.74092960318018   -2.11778424697528   -1.14239115342030
H           1.79759430214961   -2.12606527235672   -2.10029108961406
O           0.32482976067708    0.00207135786520    2.33802557115277
H           0.22556590774389    0.23096128432104    3.26300887792263
O          -0.47944879311742    3.22108583539856   -0.39270963913379
H          -0.20817284707688    2.44434340549230   -0.92879606652026
H          -1.02048290013143    3.76346925541015   -0.96866573152633
O          -1.83496726858315    1.24837941367611    0.86552959018454
H          -1.14687320891828    0.73298995580228    1.31195895128372
H          -1.40969941645613    2.08936951747883    0.60266848038204
O          -0.72903997741969   -2.34134621031752    1.77141751721477
H          -0.89261681108021   -1.96990921985612    0.87967674790354
H          -0.16685729605976   -3.10578965942181    1.63069443408567
H          -0.06340241698069   -0.90314901435100    2.22224247868696
N           1.91487587654144    0.22683541686452    0.12303569601979
H           1.43536910705584    0.16049729630584    1.03951904625607
H           2.12187360209779   -0.72964030901046   -0.25071303012811
H           1.18182425442414    0.61504777677775   -0.58695384249515
H           2.73779979378193    0.81712496841588    0.17315935450957
