    26
        -50.45147849  Gyration_radius:  2.46473841276 Dipole_moment: 6.091
 S           0.31794812990865    2.27764207385240    0.67294168303313
O          -0.87204209264319    1.45573001890289    0.60080300262038
O           0.30368278462998    3.30800191521552    1.64354169202055
O           1.53701490426251    1.33047363906458    0.87089047487827
O           0.62184639135376    2.84341202736561   -0.72283884525685
H           0.76062647749953    2.03018528551250   -1.29577177428185
H           1.33114901596592    0.56148053608730    1.48846756151523
O           1.00810353753002   -0.68272211641553    2.36937170666505
H           1.09313449899476   -0.45401494931475    3.29665500419525
O           1.03099727031988    0.69608408980975   -2.08039013605928
H           1.88065192330724    0.80670229604593   -2.51049428081640
O          -1.71360797222034   -2.05611819409216   -0.64548349240101
H          -2.51874253284930   -2.53432035189555   -0.84708749868980
H          -1.78925747295939   -1.17820704106736   -1.10309276724777
O          -1.74576636602247    0.36721985250564   -1.70149753211862
H          -0.94319216967638    0.48127827568787   -2.22343599608594
H          -1.57712993796789    0.85596306743940   -0.87417640151966
O          -1.50295514519383   -0.87244051027212    1.81284253984097
H          -1.61360159307828   -1.42882390400329    1.01691769275012
H           0.02587759696692   -0.84792201293174    2.20899323311414
H          -1.52188024150571    0.04083595900468    1.47931116090929
N           1.20420225249636   -1.48795302099611   -0.64432308405339
H           0.26801940886802   -1.88426785387902   -0.63613716062347
H           1.46603025098069   -1.30868005370735    0.31817282130541
H           1.83239565166204   -2.19129453441189   -1.01234529940491
H           1.11649540935949   -0.12824449357020   -1.48183431429195
