    26
        -50.45043685  Gyration_radius:  2.52743806384 Dipole_moment: 7.557
 S          -2.33405065304566    0.79555180735804   -0.89445401558509
O          -1.24094982811802    1.35472798924448   -0.12475709792635
O          -3.33553274792072    1.68841515134673   -1.33705086652549
O          -1.72473576569034    0.02860000321462   -2.09696336546431
O          -2.99111142913348   -0.32895448554840   -0.05906685694865
H          -2.28903964383920   -0.87438645662531    0.39890813600989
H          -0.72041771708198    0.00391219141904   -2.08536642620562
O          -1.23853081008433   -1.67548841601535    1.30089855217781
H          -1.75994393403608   -2.13698003077083    1.96041301646596
O           0.83457385003406   -0.20256185639698   -2.20797042647568
H           0.98961032622097   -0.71558255762940   -3.00266871546464
O           2.27801704064137    0.71015218618793    1.40837823806880
H           2.88584493404779    1.25786959878871    1.90646263561344
H           1.99279829004109    1.25482395575533    0.62630336420658
O           1.32524014370648    2.05114918967391   -0.65538927524109
H           1.40433399572082    1.45012946820526   -1.40777112805343
H           0.37841804608214    2.02739971551417   -0.43349328459977
O          -0.30312551827375    0.51790369953330    2.26291400261427
H          -0.84528855004797   -0.86824942210061    1.76590113078696
H           0.66033282771092    0.55293176203384    2.09659129769915
H          -0.69946474999283    1.02953074183153    1.53516123706251
N           1.37950914566482   -1.66639372217458   -0.13081016325264
H           1.06941520429136   -0.80149877074875   -1.41085171952945
H           1.94351852779984   -2.50197465483578   -0.21394857330654
H           1.84917607241827   -1.03027592662812    0.50790825899552
H           0.49140295287542   -1.92075116062923    0.29072203488021
