    26
        -50.46259452  Gyration_radius:  2.42220515549 Dipole_moment: 8.959
 S           1.83069156640653   -0.16539023364534   -0.53465392966987
O           1.31300067998257   -0.86620521215940    0.67666665235059
O           2.71923508786192   -0.99634013073882   -1.28204007453909
O           0.54284282135598    0.13233333120629   -1.40134460326189
O           2.30646207056944    1.15662219719817   -0.17424576044639
H           1.20393168753178    2.12327132227911    0.29588966593009
H           0.01664767127361   -0.71926392067017   -1.51424245921872
O           0.48357429343871    2.70896177114501    0.69434835668417
H           0.91532710330383    3.54218452410726    0.88824591562729
O          -2.45286786661553   -0.19830128851011    0.38001478445430
H          -3.41017415451743   -0.22768993760103    0.36242867240305
O           1.24042256263805   -3.21871601050864   -0.53078413763012
H           1.34288370908252   -2.49595488752817    0.11565342614254
H           1.92655065149503   -3.02317671440319   -1.17968984052280
O          -0.91439862400126   -1.96891307207279   -1.42154161228154
H          -1.47501438712336   -1.74692630875415   -0.66777996944051
H          -0.23889301466714   -2.62179284016891   -1.11456344229814
O          -1.53220675191242    1.84206604108476   -1.00825580191497
H          -2.18750461047975    0.54902113196119   -0.22328674342597
H          -0.98226133116486    2.38513259466265   -0.42137885569676
H          -0.88397979657148    1.34517432713142   -1.53047236714779
N          -0.37439190304609    0.50469902272129    1.95513563539163
H           0.39415316821924   -0.11689503498642    1.45139672486088
H          -0.34686363452707    0.37935508935284    2.96020029610083
H          -0.15088120695775    1.48140984952552    1.67434888706849
H          -1.28628578157360    0.21533437938197    1.54995058047427
