    26
        -50.46237189  Gyration_radius:  2.50691921647 Dipole_moment: 4.909
 S           0.79642674099310   -1.66671005687981   -1.18950827834227
O          -0.48811426788508   -2.07369446951604   -0.65949150010392
O           1.83981233204558   -2.64481741460205   -1.08440983353758
O           0.56395272801456   -1.40555839879263   -2.76054675899908
O           1.17017391760602   -0.32800820680250   -0.71876222912050
H           0.29755884980590    0.85041153422664   -1.34847111372944
H           0.62682586782443   -2.27011694713159   -3.15550184968520
O          -2.10457894482291    0.39649217088187    1.95055861662955
H          -2.59047762062788    1.21005564622201    2.09432303299509
O          -0.28843237726263    1.60628581824350   -1.61269411148845
H          -0.23733721738620    1.65246635247673   -2.56863988842925
O           1.20583232624102   -2.10493966140701    1.51410750201970
H           1.73327947277488   -2.42972447704070    0.77215785873399
H           0.30736063098548   -2.37396602059103    1.29690039939017
O           0.74001844923437    3.01664391354927    0.51708053455648
H           1.58911474960814    3.31909505667747    0.19090970704847
H           0.26557773068212    2.65829076549754   -0.25747016086358
O          -2.26872461088174   -0.10999293455193   -0.60065093980287
H          -2.28797376558134    0.12959764353963    1.00565051392966
H          -1.74968313853812    0.59831988308362   -1.01291313409896
H          -1.71065803267260   -0.91438413505650   -0.66402146563484
N           0.52602549486107    0.58478991726714    1.68360687552696
H           0.72342671081958    1.59054860032462    1.50795673232727
H           0.77439381934466    0.07310045223755    0.79502232853112
H           1.07640216221911    0.17184816647583    2.43110938512938
H          -0.51020201742290    0.46396681168434    1.87369777702032
