    26
        -50.46231979  Gyration_radius:  2.53352060145 Dipole_moment: 2.715
 S          -1.52638579110681   -0.60504916216386    1.63721370744645
O          -0.75469665228805   -1.79214622072328    1.28775306460952
O          -0.68654698502222    0.55512807098978    1.85360330884124
O          -2.59647458173730   -0.36918636095680    0.68425371131725
O          -2.21254548234452   -0.91491908866900    3.02854955361984
H          -2.75258723715865   -1.66955622983113    2.81845110750061
H          -2.06815141352509   -0.06364023914522   -0.78394233433660
O          -1.65048314102195    0.11442005006556   -1.66926182112871
H          -2.35737643868040    0.06509893018662   -2.31425545931324
O           2.19676131379805    0.68291881336963   -0.34379499473001
H           2.33958393910605    0.51032741350955    0.60951327091431
O           1.90824630925326    0.15762376969774    2.26609197307304
H           2.14788391523365    0.73501308083585    2.99244304712076
H           0.93331132816559    0.22434995660038    2.17997508233572
O           1.27909429894186    0.39081487975508   -3.06299055237890
H           0.70871296169197    1.16062519134791   -3.10569534142000
H           1.97745984791027    0.61281302802948   -2.43769253552107
O          -0.09944313829469    2.02103952333957   -0.34412901332191
H          -0.36807936260838    1.68535241618767    0.53038133669896
H           1.46644305496163    1.34776912530644   -0.36298678322898
H          -0.68118949458295    1.56348537746971   -0.96806589801082
N           0.56503104292565   -1.30528102373602   -0.90673201018820
H          -0.15201939718492   -0.84102118898492   -1.49404122406988
H           1.32205159253783   -0.57388298338848   -0.69938568595782
H           0.09848556604412   -1.59331001571089    0.00226239329967
H           0.96291396498929   -2.09878712333332   -1.39751790316433
