    26
        -50.46619307  Gyration_radius:  2.55649354091 Dipole_moment: 3.249
 S           0.97811985436631   -1.32876003209698    1.60757738696805
O           0.32276766319470   -0.76085333215114    2.76149458007641
O           0.08642306514590   -1.90326971764243    0.62095969084028
O           1.91226357569314   -0.38362172224519    0.98229373405316
O           1.87013658813489   -2.51791897984358    2.16278393167941
H           1.88030226582526   -2.31339365070284    3.09131995559930
H           1.47059426549941    1.13769658449693    0.69434761218704
O          -1.90215828356284   -0.33574731660924   -0.14539924991289
H          -1.34422624992203   -1.08548703356602    0.14980769877417
O           1.15200295325754    2.03966596397184    0.42953355992653
H           1.85196165435982    2.64819154928172    0.66942355776418
O          -2.56974201590747    0.68259064745973   -2.74698238002059
H          -3.43512588874778    0.67981894616793   -3.15679487037951
H          -2.66999396990373    0.24429006240546   -1.89011818930328
O           1.68802634215664   -1.28169937221138   -1.47347551606989
H           1.08692174005688   -1.98833374961982   -1.20485629992176
H           2.01337623245279   -0.94660697323322   -0.61030988301171
O          -1.18027240455327    1.24160144242657    1.83075299090931
H          -0.71385854658309    0.54080904820980    2.32889506236529
H          -0.48132156653820    1.78401056824074    1.44044737025045
H          -1.87305635189922    0.29273574704104    0.61845245156285
N          -0.01677228212061    0.73251546259650   -1.65952935553796
H          -0.42693657898022    1.05744051809902   -2.53250480977209
H          -0.80992571953932    0.31971026630811   -1.07141417179318
H           0.69361881421541   -0.04346622827065   -1.78944370481176
H           0.41687486296899    1.48808129216371   -1.10726114332881
