    26
        -50.46365328  Gyration_radius:  2.41764463206 Dipole_moment: 9.116
 S          -1.30397657461946   -1.31233758538719    0.71876341261519
O          -1.28539175977521   -0.60145614744407   -0.55910884490575
O          -1.79811440807272   -2.64447797551367    0.65987262952167
O           0.04485449110715   -1.23068363529898    1.34430830150668
O          -2.22676513927952   -0.45377977506424    1.66242250238307
H          -1.88129781564143    0.45568992165782    1.60333997478580
H           0.69897007239574   -2.56193118273726    0.42704227852301
O           0.86007045435444   -3.17370599522323   -0.31029814887807
H           0.03664399717536   -3.66529215109408   -0.38264723274065
O           1.74303477227301    1.15410392272603   -1.46289667826013
H           2.55196779398256    1.30131468644660   -1.95381779322076
O          -1.23438343093309    2.09627877432630    1.39145870791096
H          -1.91500427778657    2.70751324627763    1.67710928523866
H          -1.21587789751273    2.13807529283247    0.38779417719409
O          -1.00266873190197    1.93568348108604   -1.17893856401141
H          -1.25662141692125    0.98935327013071   -1.12096485200771
H          -0.08461142886274    1.92085809995444   -1.48146506787836
O           0.78219055635492   -1.14597544634630   -2.10119963726486
H           1.08311853729376   -1.94795074910247   -1.63186227658579
H          -0.10154043945738   -0.98754642054948   -1.70922903035870
H           1.40733102396014    0.24338099140633   -1.75065713547198
N           1.24738326767516    0.98306853704545    1.16172011519662
H           2.04246303058188    1.03490371458532    1.78851566015919
H           0.51759969000472    1.66034088743674    1.41895825470989
H           1.53404889348713    1.11371970532313    0.16090317866468
H           0.75657674011645   -0.00914745747524    1.24087677317393
