    26
        -50.46529572  Gyration_radius:  2.48310705022 Dipole_moment: 6.137
 S           1.34752931018101    0.88453661508242   -0.20400579323994
O           1.05304249368879    2.23906395572905   -0.58991924772654
O           2.73518416465564    0.49857897564664   -0.22369228302854
O           0.70102602934844    0.53684280383909    1.08139347800108
O           0.65761146998694   -0.08767545590539   -1.25938860869146
H          -0.29436946229014    0.15964696545756   -1.30287710015798
H          -0.33125655399605    1.50632119406244    2.02057603552408
O          -1.92826569938213    0.43977893962160   -1.30022916710397
H          -2.27108856281654    0.67506409135891   -2.16435730061796
O          -0.95310295883303    2.13930297356519    2.43420353133731
H          -0.40948840804394    2.82644832438625    2.82333200377035
O           2.66066922669368   -2.04645732956065   -0.67190365427818
H           2.45455181702899   -2.06486765405525   -1.60887431037076
H           2.83337257110939   -1.08666987055889   -0.47635376081063
O          -1.77951702531621   -2.16845478635302   -0.49337125893696
H          -1.96609251320447   -1.22361882786455   -0.64886466944749
H          -1.75172705719248   -2.58074965558737   -1.35861641280552
O          -1.51836529128814    2.67147114038255   -0.15639441023156
H          -0.55807592200854    2.68906896629946   -0.36685228421420
H          -1.87444535960771    1.32082531171421   -0.78841579410653
H          -1.55304317034086    2.57763803931719    0.81664700188929
N           0.54201846316614   -2.01270098252366    0.90323018412212
H          -0.35661113516259   -2.18882029065069    0.40146213006950
H           0.59018703542564   -0.95622242005677    1.10132162836614
H           0.59726428694628   -2.54973432159343    1.76190085556233
H           1.37299227128778   -2.19861670169464    0.27004921717217
