    26
        -50.46529564  Gyration_radius:  2.48282711509 Dipole_moment: 6.126
 S          -0.88332662578765   -1.23491228327818   -0.57844974836832
O          -2.23764662980316   -1.20514372159661   -0.09332586021489
O          -0.49560523859544   -2.40120906392010   -1.32976306687827
O          -0.53767606966224    0.01525955138699   -1.29156885227553
O           0.08932733076445   -1.24279882955546    0.68211313645930
H          -0.16002838785082   -0.47589701953864    1.24699234022177
H          -1.50489930436906    1.39714793675933   -1.49429139374292
O          -0.44165186707158    0.88385042061343    2.15242837338693
H          -0.67565611329149    0.68937223464078    3.06183503433172
O          -2.13627990731432    2.14535804994926   -1.49120762329667
H          -2.82213257703965    1.91380337514293   -2.11978489579969
O           2.04906055154173   -2.58634891230920   -0.91355688824277
H           1.08936011369436   -2.62279366065355   -1.17224283074920
H           2.06754903473564   -2.93185246475232   -0.01852956468426
O           2.16596651751479    1.20673024849317    1.39423163790758
H           1.22148955901515    1.27698908471510    1.62796259357407
H           2.57761884003170    0.70072110109247    2.09694335338105
O          -2.67432677693238    1.17347549386889    0.97418292669537
H          -1.32357666134935    1.12130287624081    1.69755144344124
H          -2.57947389737407    1.74296489097911    0.18450153369630
H          -2.69052358370626    0.25803211399726    0.61583429004011
N           2.01195143099583    0.04989385184797   -1.05568002671563
H           2.18672442606230    0.52030669897331   -0.13991286287182
H           2.54932360052830    0.47961090268152   -1.80087711260678
H           2.19891407785171   -0.99242775112257   -0.98771541517174
H           0.95551817741975    0.11856485533976   -1.24767050147457
