    26
        -50.46386703  Gyration_radius:  2.48050559838 Dipole_moment: 2.552
 S          -1.59860154931037   -0.63973448784415   -1.11607730931670
O          -0.30271165698568   -0.29564873086243   -1.69990913190786
O          -2.61591491117397   -0.98678039106188   -2.05079884374656
O          -1.31336944747774   -2.00269475788277   -0.28370634381744
O          -1.96389544335562    0.33253710581519   -0.09366554226927
H          -1.17105782902593    1.77985778273267   -0.59470092041868
H          -1.91489544756443   -2.56657137221651   -0.75663465786206
O           0.34712975691957   -1.75729222582541    1.98999608496405
H          -0.26717325870509   -2.13378123115281    1.34674233890386
O          -0.52319139677387    2.45550208653385   -0.86966925929559
H          -0.13778971132045    2.11368372113888   -1.67970651896833
O           2.31965541271830   -0.96506901053340   -2.36394137929786
H           2.56643428031253   -1.12957360707765   -3.27451982610509
H           1.36482438402612   -0.79903945090141   -2.36295387977698
O           1.03468516530977    2.16110980918810    1.30487363033262
H           0.36347499629694    1.80108294000391    1.90699987381369
H           0.52719977462433    2.51365636171482    0.54285775978112
O          -1.02973558965820    0.58876343988417    2.33626742875763
H          -1.75553153476548    0.87216030735407    2.89384847109437
H          -1.40791083590840    0.49014543146554    1.42872267773612
H          -0.12377873549523   -1.00258046640512    2.38608001860740
N           1.54754086043661   -0.16873770859622    0.20750479634665
H           2.41870789054887   -0.38679783511437   -0.27351178963922
H           1.54240494772628    0.79771813506484    0.65492478415971
H           0.78672522987372   -0.18980515395925   -0.51704504707278
H           1.30677464873569   -0.88211068146513    0.93802257497035
