    26
        -50.47194178  Gyration_radius:  2.49772023767 Dipole_moment: 3.371
 S           0.45606420350511    1.37803546967929    1.66928067727837
O           1.42472078997087    0.42187741030727    1.14347626793082
O          -0.18184650466990    2.15161275483386    0.62254470311798
O          -0.47829934404469    0.75014180453898    2.58309458962424
O           1.28677392597041    2.41903281260420    2.52721063143544
H           1.55593177473167    1.89343834053570    3.27314781110429
H          -1.38338039489741   -0.37050590863607    1.90635887573595
O           0.63170499119504   -2.48960375513951   -1.84576504993146
H           0.05911525205288   -3.24445606697107   -1.98721264186023
O          -1.90694972374664   -1.05352941341349    1.40779208010784
H          -2.62587553219856   -1.30825037084674    1.98848525621885
O          -1.93784441438517    0.66489788276305   -0.70629165251985
H          -2.09189314494339   -0.04136674017742   -0.05270528021486
H          -1.42528219623607    1.34295459919452   -0.21737285462056
O           1.70705926712207    1.62827978918912   -1.15887321090817
H           1.93501684901791    1.06181910541766   -0.39495431181362
H           1.05632544425773    2.22868067217256   -0.75726698484286
O           0.57869836811073   -2.08824650102180    0.73651893624346
H           1.01438128874607   -1.23531465720567    0.92892044607110
H          -0.34899089842014   -1.94935123677398    0.98253144653594
H           0.71543228727000   -2.39219634890777   -0.85693257621938
N          -0.01054688944577    0.04019789779601   -2.38462026195599
H          -0.18601910066865    0.25570657323091   -3.35954387197932
H           0.76756745912938    0.65908973677586   -1.99819195265964
H          -0.86915525657714    0.24708204964956   -1.78517978306201
H           0.25729148914697   -0.97002588958054   -2.26445128881308
