    26
        -50.47044725  Gyration_radius:  2.42973798007 Dipole_moment: 3.758
 S           1.36927929590290   -0.97294884567240   -1.42181260264392
O           2.70512463501004   -0.72402566694879   -0.95853786509282
O           0.56820738940169   -1.75273389251084   -0.48691577263421
O           0.65241799969724    0.23685776529020   -1.82416106265843
O           1.51182732299583   -1.85022609280054   -2.74077072643013
H           2.45536221265243   -1.96369980048475   -2.79077064917963
H          -0.92488054325671    0.37537070758623   -1.61935079117184
O           1.55087008466950   -0.54271414892017    1.61813285098130
H           2.48193686626873   -0.77296536117018    1.65021641663879
O          -1.88603270700557    0.57077001955468   -1.44687821485371
H          -2.25695477989935    0.81306536647254   -2.29636618345018
O          -1.10497957660894   -0.17300095405411    2.45171831825594
H          -0.15987106143694   -0.38479114296206    2.45334831373644
H          -1.51559267449226   -0.81973053396976    1.82411066020882
O           1.37951495571971    1.79409815492436    0.21219034445924
H           1.65654785940134    1.08133697835603    0.81973423334417
H           1.30280287923578    1.35119241081651   -0.65468955706678
O          -1.96487717006182   -1.58707280406630    0.38330530381320
H          -1.08033458419805   -1.85184672177104    0.07013975104424
H           1.19321570408143   -1.06158557500787    0.86197858996344
H          -2.26146397985377   -0.93768497136773   -0.26754586531749
N          -1.15673157877640    1.86421911518166    0.83667113944385
H          -1.61694058955837    1.50393248746342   -0.02080574266108
H          -1.57919757229893    2.72831864594280    1.15468922508676
H          -1.20244337879421    1.09026191878344    1.59027035814001
H          -0.11680700878764    1.98560295133373    0.60209951801863
