    26
        -50.44151840  Gyration_radius:  2.60944502424 Dipole_moment: 5.289
 S           2.06395329245499   -1.75851159053792    0.88483206104683
O           0.69605474034856   -2.14809168202502    0.65282982042376
O           3.01931076112758   -2.78573407587521    1.06771098355620
O           2.49440275642395   -0.82177831328471   -0.28961992970208
O           2.11034356874194   -0.79731585037163    2.10117175309085
H           1.39814800014334   -0.12046679732323    1.95297664323730
H           1.76913662016161   -0.71930542942929   -0.96798154997640
O           0.30229941168256    1.02408534536079    1.68478313484575
H           0.45471158531393    1.74241503995066    2.30128800398169
O           0.66828020576748   -0.53208623256042   -2.12004073389723
H           0.86282374965273   -1.16875331904518   -2.81015275930304
O          -2.20016512399290    0.07832152428859    1.27011455280469
H          -2.45037054194386   -0.53897216171657    1.95930471910508
H          -1.29752225639295    0.39131464386077    1.48961281380611
O          -2.42629884558500    1.54085490364747   -1.14622928461972
H          -2.60786899182904    1.21477665301638   -0.25527543251059
H          -2.46802784429567    0.77164334294966   -1.72000382592402
O          -1.39621134954106   -1.49361011982281   -0.84673885566541
H          -0.75203738640058   -1.99877623845620   -0.31831271304837
H          -1.80811322086789   -0.90227897928425   -0.19050790801012
H          -0.17978554997783   -0.84012004349848   -1.68887265767928
N           0.37205284608157    2.02979067804260   -0.67597434809880
H          -0.61598033065710    2.07878044998546   -0.93493373062821
H           0.81403770305511    1.37852147718473   -1.31522089188592
H           0.78626302122045    2.94226648240484   -0.81204575785343
H           0.39056315931210    1.43303029253596    0.72728588289428
