    26
        -50.45719745  Gyration_radius:  2.49298567567 Dipole_moment: 3.857
 S          -1.08588008919988   -1.80686568090265   -0.56959145570839
O          -1.77163882207863   -1.08805285365411   -1.64166682058653
O           0.21055887315634   -1.23217832450538   -0.30556864340917
O          -1.91270203412887   -1.97341690044611    0.60959837870250
O          -0.81704141862562   -3.27736948419030   -1.12164717143847
H          -1.68316605664008   -3.67330090510935   -1.10678638446710
H          -1.60265622070530   -0.59950364855161    1.34687619633572
O          -1.40690260196977    0.25157853025939    1.81635822669942
H          -1.70726109728353    0.12509854138561    2.71858967177882
O           2.07068296693422    1.17729683632058   -1.02302362306178
H           2.58999532495434    1.98235719739984   -1.00222571222061
O           2.28012880636858   -1.62802130892008    1.31584343319794
H           1.48475648909991   -1.63098166181895    0.74342719431403
H           3.02023979744429   -1.74919314096436    0.71875553519652
O          -1.04988831727026    2.49415345224711    0.37206694144237
H          -1.41495322638375    1.75595125604463    0.89693527228340
H          -0.18318558246034    2.65425252461203    0.75951792910457
O           1.31875205358429    0.89748514127555    1.51193321885129
H           0.39114178559851    0.61418746490762    1.58383209125626
H           1.81604356938567    0.07097042957308    1.66619265210127
H           1.80869564125301    0.99231233780643   -0.08406127845798
N          -0.47197071096761    1.13765188262705   -1.86510908930203
H          -0.63183301624871    1.57907671156193   -2.76431467052926
H          -0.81514595828068    1.74087127185092   -1.07254205466135
H          -0.98753888614048    0.19915245403685   -1.81493170396337
H           0.55076876059621    0.98648786713533   -1.68845814344009
