    26
        -50.45572680  Gyration_radius:  2.67487677773 Dipole_moment: 3.276
 S          -0.40213718028284   -2.43416611264720    0.87419064170661
O          -1.58603008605128   -1.58950796152509    1.02623737179408
O          -0.27250020742791   -3.02730643588170   -0.42427024439121
O           0.80753818098879   -1.69502569121265    1.25916557089031
O          -0.58669504909942   -3.58690640730831    1.95397115757345
H          -1.27707171698358   -3.25012064571037    2.51837488139698
H           1.40234981171329   -1.35262069245724   -0.25783969723326
O           1.48776534582975   -1.10116523771515   -1.20688164211048
H           1.37199127584324   -1.93603169276027   -1.67060033938096
O          -0.21871562681763    2.44982934269901    0.03648955610508
H          -0.18634975049998    2.24688533407787    0.98042392010019
O          -1.99287531216392    2.24136795400783   -2.25594066585802
H          -2.34377309857717    2.95492644809056   -2.78954991636452
H          -1.48554687155584    2.64998404270554   -1.54270929109032
O           0.85445044816786    0.81070900325901    2.05207642335208
H           0.77291030231439   -0.13362736839436    1.78193365756398
H           1.14322616128657    0.79246010266632    2.96498745735655
O           2.23265102938232    1.48794872952127   -0.30932448434795
H           2.09401721039157    1.20948603857327    0.60926909969359
H           2.21649470487926    0.67447434738894   -0.82875139348811
H           0.71659035251264    2.33310547910420   -0.25331326256879
N          -0.96280261742280    0.04353238355376   -0.91785970459239
H          -0.73536766361563    0.98440564306964   -0.49842751453254
H          -0.07025482195836   -0.39377619693445   -1.24011165059040
H          -1.37107614796796   -0.58675248583254   -0.17218462241187
H          -1.60878866288087    0.20789209966323   -1.68935532858091
