    26
        -50.45572693  Gyration_radius:  2.67506887992 Dipole_moment: 3.270
 S          -1.85770389322997    0.30114266569220   -1.82026754230118
O          -1.41875468167263    1.57964906389182   -1.26273732909142
O          -1.03091824451954   -0.18443653180391   -2.88575393275566
O          -2.01394056257378   -0.69639958267695   -0.75331734637382
O          -3.31649318278181    0.58615663519060   -2.38560421046990
H          -3.54723916755919    1.42005487830449   -1.98565130667303
H          -0.61942669389670   -1.57094353482412   -1.00289563004334
O           1.16285620581674    0.50625185056865    2.10782491869280
H           0.24258909578483    0.66266277810293    2.35650184983433
O           0.31179048501737   -1.83659948960143   -1.18599087071825
H           0.33438273585720   -1.92612617998840   -2.14355571400954
O           3.31052786931442    1.68176796557192    0.54305184308657
H           4.16684619414831    1.97492580396425    0.85575544047421
H           2.81108769206227    1.40039157154791    1.32053462479531
O          -1.51978872539887   -0.27363227116264    1.79359499097528
H          -2.36262046501648   -0.35161486826952    2.24156664898526
H          -1.72173742650312   -0.36484467112194    0.83323252139242
O           0.65499965459607   -2.05516387511238    1.62416693042113
H           0.72188219620232   -2.24993800511345    0.68106689633437
H           1.22435128572536   -0.47733543901262    2.07112308163656
H          -0.25504841915505   -1.74850044982538    1.75962720128165
N           0.95513824819876    0.73318375939263   -0.56802123319447
H           1.79573800367303    1.20513504059431   -0.89997826955771
H           0.06690497673056    1.22119376857055   -0.87282111572458
H           0.89976209356299   -0.25354939391003   -0.90704818425795
H           1.00481470565919    0.71656850101900    0.48559573731919
