    26
        -50.46045568  Gyration_radius:  2.58372304058 Dipole_moment: 5.556
 S          -0.50813027197902   -2.46360388472691    0.41195199184274
O           0.72832439339422   -2.22998056335421   -0.29870880029603
O          -0.74269730580453   -1.48589099721592    1.46496073288499
O          -1.63768894927429   -2.59791819952047   -0.49944634235791
O          -0.37720985463921   -3.86171112148210    1.16201810437080
H          -0.30056822859634   -4.48380528351886    0.44519667672634
H          -1.34731101147767   -1.33296097144031   -1.34409617317019
O          -1.13669602960761   -0.48935683477325   -1.84237532913966
H          -1.34006347205255   -0.67268198483390   -2.76136389190117
O          -0.18614626716515    2.47989466822763    1.21616754072669
H          -0.62679027204262    3.12995149394292    1.76432512708495
O           1.38765182948837    2.95917612212732   -0.92241882215731
H           2.15491084323862    3.42321836084181   -0.58398113442620
H           0.75865810124661    2.88743604611455   -0.17144706894824
O           1.31510917191267    0.13606931175891    1.57421337928459
H           0.62614714379219   -0.56073354647583    1.66921246091889
H           0.86404483472687    0.97928759911419    1.73854139568199
O          -1.95780425790640    0.70090075512124    0.54140064862176
H          -1.91659964950581    0.49365957106609   -0.40171798073250
H          -1.65679545192440   -0.11856551095144    0.98804135839392
H          -0.89859581769036    1.83335845252983    0.93743008554612
N           1.37339330056648    0.26513061280596   -1.04410284974351
H           0.43845404960240   -0.07041127225624   -1.36560391685318
H           1.48644480330455    1.28445523244253   -1.22715162095715
H           1.41465951138014    0.11107507175369    0.02209622147227
H           2.08529883701829   -0.31599313730167   -1.47314180282661
