    26
        -50.45909915  Gyration_radius:  2.47766472673 Dipole_moment: 8.431
 S          -0.86065275495788    1.45942608633122   -1.80878893818053
O           0.19596044282793    0.66893620400080   -2.46678358677280
O          -1.92119797918236    1.85743011884476   -2.66712937223897
O          -1.31881920623067    0.71798349662123   -0.60841517350759
O          -0.14853460211741    2.74163212944748   -1.24725594988290
H           0.53388540697795    2.38966093500887   -0.64814200341087
H          -1.55783865213804   -0.78414347248038   -0.44495438099610
O           1.50902459723468    1.86376944552934    0.71651580842506
H           1.94763054480172    2.63879463838245    1.07036697758315
O          -1.63221652621590   -1.77684767992582   -0.27936318240959
H          -2.54516294198728   -1.99731764317518   -0.46826079646735
O          -0.39522818317039   -1.48317994556983    2.11992963889779
H          -0.64388226523456   -2.16912514660283    2.74032992987360
H          -0.89739195399699   -1.64434605977686    1.29283093900891
O           2.01379907095289   -0.82043606500221    0.89894619566217
H           2.01006977075498    0.15170759391923    0.82622573064993
H           1.28194782247651   -1.04321408280868    1.49873553553120
O          -0.73187430865493    1.30300618790202    1.88476929461656
H          -0.65721910626240    0.39884876607250    2.22224448119778
H           0.67959771816004    1.72575990971989    1.26589381721380
H          -1.12866353739149    1.20144132187113    0.99066771343337
N           0.86752135046438   -1.51236896044243   -1.38268459969460
H           0.60184754055583   -0.55344896139553   -1.87112625282495
H           1.43146314539744   -1.28636024095269   -0.51297814678029
H          -0.02051716211222   -1.94590138944547   -1.09861390890402
H           1.38645176905226   -2.10170718606904   -2.02295976001379
