    26
        -50.44202906  Gyration_radius:  2.54547033247 Dipole_moment: 5.615
 S          -2.02135685618182    0.45428140023901    1.47077307792430
O          -2.04217775877241    1.07544048329439    0.17302867185110
O          -3.26373196201446    0.15916949853263    2.07950254038118
O          -1.14768464324173   -0.84315446080127    1.34875151288985
O          -1.16476993240446    1.30050449740590    2.44104042751379
H          -0.27643866451089    1.47990747897881    2.01898230413869
H          -1.09913999737340   -1.11503723618785    0.38208054690778
O           1.12458182816033    1.78413363898966    1.30640344455839
H           1.48968142179917    2.59639595858418    1.66226036467503
O          -0.86259353086130   -1.66132030039801   -1.06817057618269
H          -1.29656602036951   -2.50959875800257   -1.17266896279380
O          -0.21445270063819    0.39342723642164   -2.83656688985507
H          -0.97723192721727    0.73237258387159   -3.30872885628230
H          -0.55157591664502   -0.28809173582600   -2.23165316309124
O           1.68146907061551   -0.92881718499569    1.69398329008685
H           0.75719626285335   -1.12842033234446    1.88523086694318
H           1.71495606742875    0.03444259682352    1.60768276216261
O           0.01780718686652    2.32489909390195   -0.93749194409983
H          -0.85542651987134    2.04399066214329   -0.59749689740532
H           0.79778304796285    2.00545526236029    0.37479971544031
H           0.18007892244655    1.71759726836554   -1.68487294107683
N           1.70021130378049   -1.96399072073024   -0.94074675601757
H           1.88283858157436   -1.64786408331687    0.01760413743118
H           0.15442205915611   -1.83933291956299   -1.04000995025218
H           2.13570883840308   -1.30860845813139   -1.57736570654778
H           2.13641182903460   -2.86778147961689   -1.06635103929956
