    26
        -50.45989765  Gyration_radius:  2.59243016377 Dipole_moment: 3.519
 S           0.20629274544359    2.21842520632326   -0.78491651940572
O          -0.38162618190215    0.93023766039057   -1.09258367980753
O           1.24844686852830    2.63471063457024   -1.68232198349187
O          -0.98444549042223    3.27047689954749   -0.93305081932747
O           0.60899237097790    2.27941943691615    0.62959017085541
H           0.00300509132693    1.20816900869783    1.63843083081468
H          -0.53146959125309    4.09399972010132   -1.08614373785456
O          -0.26795359971250    0.46458156537135    2.24584908471647
H           0.01406390091812    0.72947836880900    3.12247611381794
O          -1.31614891176130   -1.68423643966333   -1.22531831531729
H          -1.13834270487692   -1.02883724017603   -1.90769864521212
O           2.54691980326670    0.70618668830907   -0.24627903144278
H           2.02801065889450    1.36058845329946    0.25997315241607
H           2.54376844805125    1.08523085923664   -1.13360314782221
O           0.15827182906463   -3.82800809598888   -0.06166031171476
H          -0.05833811942983   -4.75241810203653   -0.18528217879275
H          -0.48607910507186   -3.31881980316783   -0.57544450272146
O          -2.41738526936715    0.10168189296947    0.41900754240699
H          -2.00692196111492    0.13384529177164    1.29111908887582
H          -1.82990542775159    0.63942855510421   -0.14679110211569
H          -1.93170913452374   -1.22076541478657   -0.61096874833302
N           0.81827926373864   -1.22070987341527    0.42297515647936
H           0.05509660083016   -1.24409444013195   -0.29630568102262
H           1.59918529822457   -0.61214034471377    0.07078970007759
H           0.42560961109882   -0.75793195571747    1.26898059982267
H           1.09438300681367   -2.18849853162839    0.59917695406204
