    26
        -50.47229303  Gyration_radius:  2.48047798264 Dipole_moment: 1.996
 S           0.11240846019267    2.11439524010174    0.84396399459443
O          -0.71533608550677    0.98273996703995    1.25034981699994
O           1.51909477965554    1.76910615667651    0.82185090408558
O          -0.36574800867603    2.71758636650828   -0.38498471705023
O          -0.05667949265605    3.22371587567413    1.96308314281711
H          -0.87205758554248    3.63482033651795    1.69649000361735
H          -0.13062741400048    1.65304335408431   -1.55688829921242
O          -1.19995696558305   -2.42447845937678   -0.37456781368595
H          -1.84895882210735   -3.10099507544766   -0.56848841919001
O          -0.06243165543949    0.95650471737755   -2.25909623868055
H           0.19627655159672    1.41545082006220   -3.05981850730779
O          -0.16426401401360   -1.53545307640245    2.02527299727732
H          -0.49119396454152   -0.61833911688403    1.94724462135765
H          -0.59840941203376   -2.01679052423651    1.29784394321195
O           1.06660798880676   -1.44988877980878   -1.59689786222913
H           0.29197673796254   -1.95025426053046   -1.28273872303413
H           0.71223346284636   -0.59854919309756   -1.91655881023590
O          -2.18345138614994   -0.03646179660483   -0.72052001243481
H          -1.70641104510869    0.31099470062336   -1.48663564567305
H          -1.65682160948065   -1.54514590013760   -0.51294422740453
H          -1.77029068177688    0.40844573895010    0.04876463514837
N           2.01812870670661   -0.79429584834779    0.77266991111235
H           1.26086755684307   -1.20392052960570    1.39995383988958
H           2.95013616865168   -1.07546241019810    1.05327540313742
H           1.79027373860596   -1.09419345964121   -0.22126947781554
H           1.90463396075102    0.25742517673380    0.82064554069529
