    26
        -50.45207856  Gyration_radius:  2.41625000503 Dipole_moment: 10.167
 S          -1.66228917020721   -1.21386262473734    0.35312726459152
O          -1.10757740708530   -1.72798918769234   -0.88742621644935
O          -2.84011902300476   -1.82950565121760    0.85287676218994
O          -0.58794067081930   -1.09617592011304    1.37386456995265
O          -2.04107808148421    0.31624078829865    0.04227668058634
H          -1.36658307794914    0.64559870343139   -0.57429399149854
H           0.92750600437970   -0.95211698158383    1.19198239396981
O           1.90034294469611   -0.68502891567526    1.14037561583415
H           2.31171650007255   -1.06736459538391    1.91694615006644
O          -0.18804537954388    1.55756805969727   -1.52459377878795
H          -0.65224636667775    2.19595777777522   -2.06752474527801
O           1.58830139067906   -2.05232047737742   -1.32770660517949
H           0.65389676160448   -2.19745385547139   -1.09485145420397
H           1.97812370917831   -1.62765975487208   -0.55440542802876
O          -1.06325202684644    1.16702957094802    2.47260306404669
H          -1.93073432852315    1.39668596067537    2.12761641497875
H          -0.94710795740844    0.21108074260033    2.20983134239133
O           0.07363103427663   -0.52593351754516   -2.95860864771440
H           0.89425887476330   -0.99356410244651   -2.71302883442983
H          -0.60129479355037   -1.03165478378128   -2.46421376187966
H           0.00204822814256    0.76203478162223   -2.13554001286821
N           0.94900702272211    1.77942528245802    0.92181340914554
H           0.10900114350489    1.66890247450156    1.59058025891881
H           1.50682056809425    0.88801133228525    1.02116016099333
H           0.58845951890895    1.81355093501297   -0.05371435506905
H           1.50515458912507    2.59854398302944    1.14085375648275
