    26
        -50.46365773  Gyration_radius:  2.44719250505 Dipole_moment: 8.569
 S           1.85287717352965   -1.55412283395398    0.26815422738216
O           1.62789541366986   -0.85362253796480   -0.99071912000210
O           2.57735460034388   -2.77660129243043    0.16318222458692
O           2.77547235864287   -0.56628821566213    1.14516511348721
O           0.60887375382864   -1.62110851720206    1.04042945713217
H           0.46289003976767   -0.19697792238924    1.66965285298334
H           3.61893679761150   -0.97242906186382    0.98431690925364
O           0.30012584765368    0.72507865028864    2.01884521600593
H           0.83590361331837    0.79586782405273    2.80961690695715
O          -1.09749826496250    1.89116536732129   -1.53358629558474
H          -1.15803771446158    2.69884383924033   -2.04355756737386
O          -0.73161972341911   -0.85245133644878   -2.27792983875305
H          -0.91595797097305    0.09701789957048   -2.27297096003419
H           0.18654189571903   -0.93960347175755   -1.95455486498860
O          -1.80220082016746   -1.71811839923322   -0.04624185192111
H          -0.95367773049175   -1.90166032289325    0.41129583184371
H          -1.53269680596873   -1.56096921656412   -0.98910872094954
O           1.22181437564104    1.66653213629808   -0.42082085339459
H           1.49493282855724    0.76715191712172   -0.71437745074474
H          -0.16087890129436    1.85705794302582   -1.16369272628813
H           1.04412219066530    1.56097389469530    0.52713785929637
N          -2.07464197975961    0.71649850695336    0.68900394272224
H          -2.05175001556204   -0.36037925318240    0.39822494140059
H          -1.29599990082773    0.85237023227295    1.35718494686106
H          -1.86850899977303    1.26656390436379   -0.17115217480087
H          -2.96427207138690    0.97921024643126    1.09650199498645
