    26
        -50.45553733  Gyration_radius:  2.41760436377 Dipole_moment: 9.584
 S          -2.13189035546852   -0.22836565730688   -0.69577882007826
O          -2.29190898314262    0.66867928501886    0.44156410375301
O          -3.14759164529413   -0.14169346597631   -1.69310394714476
O          -0.76213759843491    0.28132274748808   -1.41289730576672
O          -1.76071193179772   -1.58296061035744   -0.28731990312926
H          -0.49665928378723   -2.08526524045982   -1.10712467575687
H          -1.01483696203601    1.11246168011788   -1.80202024326511
O           0.32915650392400   -2.23422637988956   -1.64235487725073
H           0.08014516939443   -2.00274950528933   -2.53942930975205
O           1.12340361240836   -0.18501690793074    2.08050693286841
H           1.58301481681957   -0.50253823721649    2.85846926125731
O           1.44897972058734    2.11627872085922   -1.16819130931623
H           2.07656953975472    2.82807717395183   -1.03511383068096
H           0.77577114217688    2.20166732650784   -0.43730360511315
O          -0.13284678778207    2.10877298239755    0.91158692559294
H           0.33185210199247    1.51109951043237    1.51212248282260
H          -0.99356420215983    1.66839100995177    0.72831965105662
O          -1.30314982352468   -1.01952055456943    2.21135930149969
H          -1.82193793611447   -0.22578246930915    1.99374061854020
H          -1.43133043629666   -1.54299234176879    1.39366368806002
H           0.17867809032201   -0.54198041050597    2.15768214439614
N           1.89240597216132   -0.44424513183290   -0.49624998266649
H           1.24963600809186   -1.14127964568478   -0.99346533639614
H           1.72932302831531    0.51814499925886   -0.89073339318933
H           1.62755277540830   -0.41369589000806    0.51682969700004
H           2.86207745448182   -0.72258297788468   -0.60475827734932
