    26
        -50.46975165  Gyration_radius:  2.44439989537 Dipole_moment: 3.576
 S           0.59002188209727   -0.85203147498663    1.58561834679726
O           0.60979784755507   -1.49726908818193    0.28628047951136
O          -0.56892714621873   -1.18448663763498    2.37612706273087
O           1.84760940357850   -1.38372700062483    2.39440001868639
O           0.80359828146462    0.59097773766325    1.45729305106974
H           2.19713502552987    1.07258536309591    0.62855943624244
H           1.43345310679144   -2.02445894682479    2.96165303244089
O          -0.66831690859356    0.82482608887605   -2.37754441226393
H          -0.62821070118225    1.27455935643702   -3.22182570015458
O           2.94996322375380    1.25166223746472    0.02903214804889
H           3.71399209859566    0.83613692930115    0.43181818111333
O          -2.71595680019227   -0.39426260307408    0.99409054887140
H          -2.07580890787547   -0.74402368176989    1.64779519160387
H          -2.59602895395385   -0.96922403687940    0.20250668167132
O          -1.69655771211899   -1.58121308903930   -1.14631182576896
H          -1.49650386433653   -0.89505703372885   -1.79575447553643
H          -0.85935370620906   -1.74494292572402   -0.67695969771098
O           1.63039930086415   -0.21810363167756   -1.83168258663686
H           0.24517972981613    0.42758238715583   -2.22735288973860
H           2.21180421721878    0.41357766615657   -1.36637350143358
H           1.33747490590195   -0.83414465395161   -1.13236778595137
N          -1.25852952378873    1.56063007142476    0.14710710203277
H          -1.99897927972634    0.84176764319334    0.49720993814418
H          -1.53623565466786    2.51794066757415    0.33240139119386
H          -0.38377225937350    1.30898373296914    0.67574286809752
H          -1.08724761492349    1.40171491276667   -0.87146261306691
