    26
        -50.47229299  Gyration_radius:  2.48030868137 Dipole_moment: 1.998
 S           2.24012125484870   -0.22259491440133   -0.35313722711266
O           1.20343783172576    0.34758480754224   -1.20816310964935
O           2.24457059885360    0.38559791450437    0.96160785927521
O           2.18526412652006   -1.67144055495620   -0.33223867141347
O           3.63008994103984    0.14640661247296   -1.01940947564249
H           3.70953270332044   -0.53601121648264   -1.67729459250005
H           0.82784615521957   -2.07847192594933    0.41230901213655
O          -0.60455323018150    2.31415574844638   -0.87867318196258
H           0.10602861549028    1.72443443189866   -1.19692133960002
O          -0.05356178442189   -2.31994684575975    0.79645993352002
H           0.09865955281214   -3.09954781403950    1.33286808102619
O          -2.57973966194439    0.38512768296348   -0.81159419303732
H          -3.40763598539431    0.31066815639833   -1.28650991374116
H          -1.95585288516557   -0.28022156558037   -1.22295635843849
O          -1.67764071551410   -0.30540711355666    1.69559525658148
H          -2.17508254490059   -0.07899905231947    0.88899008785730
H          -1.12652843900647   -1.07330093830497    1.45234619357939
O          -0.81558298216432   -1.31172053820361   -1.70503287409505
H          -1.41954929122057    1.78615578571073   -0.95675166607941
H          -0.02175240983917   -0.73870045231366   -1.66001720289150
H          -0.70033415935868   -1.94276836066359   -0.98138675065326
N           0.05823912497303    1.67487156160445    1.57802226062789
H          -0.23092979809080    2.12479229079248    0.65690777283630
H           0.98721124580041    1.19999078657708    1.39664545340232
H           0.13119752434521    2.34641977797021    2.33307298703293
H          -0.65345478770796    0.91292574566495    1.78526166895521
