    26
        -50.46365732  Gyration_radius:  2.44737453739 Dipole_moment: 8.568
 S           1.48693794954246    0.89753175862964    1.70408094478806
O           1.29628239395160   -0.53892054222069    1.54258861783638
O           1.91461424381569    1.31333023134566    2.99815406987884
O           2.68456180142496    1.28326946845764    0.69737928436517
O           0.34051222874909    1.62595667934167    1.15297693737392
H           0.57086185201105    1.59861512174564   -0.39327181646269
H           3.39662605853411    1.31999095584374    1.32495069092458
O          -0.80497121587658   -2.18728846769854   -1.30656195496092
H          -0.73890448728034   -2.98831241443193   -1.82628208447184
O           0.64836697800719    1.52890253605925   -1.38719774773212
H           1.26238124327680    2.21799668652608   -1.64328603575653
O          -1.12062127682924   -1.71304833998307    1.50295486828100
H          -1.09265850354064   -2.10696885435546    0.62009340873799
H          -0.21616275315658   -1.38080655176668    1.66685192288368
O          -2.12873224967185    0.67428473458587    1.10310647180383
H          -1.29992747650695    1.16835169074780    1.28184813480941
H          -1.92565596313065   -0.24738659580447    1.41241196898865
O           1.50884877091070   -1.07949147159584   -1.00790282659611
H           0.13357176912805   -1.83604237854885   -1.20355335343830
H           1.40655177331095   -0.17467151427397   -1.34274092048203
H           1.54951231490105   -0.96908245845594   -0.03033697659634
N          -1.79033783557987    0.32158281505323   -1.40755911267901
H          -2.03144022431143    0.50871750496341   -0.33460974007938
H          -2.55635234441023    0.58055961706237   -2.01803942563225
H          -0.93841713791536    0.87247473488612   -1.61266468252632
H          -1.55544790937216   -0.68954495617664   -1.49339065335365
