    26
        -50.46349420  Gyration_radius:  2.49276662817 Dipole_moment: 7.031
 S          -1.28621286888691    0.29508081124517    0.32790869031726
O          -0.32780146822580    0.85589874704360   -0.63840751798898
O          -2.39777983822586   -0.35989105887856   -0.30430222463756
O          -0.56515005509551   -0.61057675243466    1.23348559617739
O          -1.81638258001552    1.48250903572793    1.18744949599031
H          -1.00915020755088    1.99908238875802    1.42574557724555
H          -0.76243978379960   -2.18711108373108    0.43002721601811
O          -0.96064399833037   -2.68085020840168   -0.38842264958157
H          -1.81349004679243   -2.30819453886238   -0.65175927642450
O           3.06640607419583   -0.95703354389635   -0.36450501059517
H           3.68020385401489   -0.27313164953685   -0.63821636526245
O          -3.21914203688896    2.04228848429572   -1.37474982908858
H          -3.03701302321302    1.12611150029868   -1.12654460246396
H          -3.21814379055556    2.53279713525761   -0.55049870606366
O           0.62373485302028    2.44994715369380    1.28256630024570
H           1.21848092842741    1.80093602801425    1.68654408271424
H           0.52029253444565    2.15732756367843    0.36243044169923
O           1.86034840038710   -0.02328315906275    1.84454710707556
H           2.67602240380842   -0.64780728769193    0.48514243978132
H           0.91915050289000   -0.26630212749556    1.61999083735400
H           2.04843497595116   -0.45909472313646    2.67787087641991
N           0.77426383062211   -1.20804057930747   -1.73735000311929
H           0.81346055534372   -1.27383524773140   -2.74874180209582
H           0.32469242104045   -0.29021230177157   -1.42013454128944
H           0.15772622931807   -1.96191703462178   -1.31628288964192
H           1.73013215412062   -1.23469757149932   -1.30379324289667
