    26
        -50.45364649  Gyration_radius:  2.6618002114 Dipole_moment: 7.047
 S           2.35609199748928   -0.77144374982863    1.12890663584825
O           1.72056507012233   -2.08771145365999    1.04012372451098
O           3.29789845132105   -0.61743042849379    2.18549139850665
O           3.22119057907005   -0.65797769810033   -0.24665113379363
O           1.36109301898095    0.28470080344257    0.97872427465537
H           1.13361191084561    0.61222092412364   -0.56786648616235
H           4.09823550240928   -0.81743012922007    0.08593985702281
O           1.00591101219149    0.56889013843050   -1.55421364857419
H           1.88722178423297    0.66569294320797   -1.91984817873050
O          -2.28761399350416   -0.86525403839735   -0.11100804069089
H          -3.20718953378002   -1.10468413934243   -0.22698575024765
O          -1.11409545868731    0.68131723834774    1.99100131402711
H          -1.56810305632974    0.00949060018468    1.46378370007067
H          -0.16954697168139    0.58186381232263    1.77852677073771
O          -1.76674004733373    2.88287280420442    0.63690692591269
H          -2.50282062503772    3.30905102612213    1.07644004073342
H          -1.47337747227982    2.15179029993133    1.23399575022657
O          -1.73478886063682    1.25794865450890   -1.48385745150791
H          -2.13744022938552   -0.02867939807677   -0.65370280200426
H          -1.80185765959192    1.96990715181670   -0.80961404903547
H          -0.78915764154960    1.18824876871962   -1.67464705716917
N           0.08250099549605   -1.86375376654172   -0.89172816286198
H           0.08287509805506   -2.66718047973586   -1.51026080611848
H           0.74919417626755   -2.02638557085843   -0.04004950100666
H           0.43516568771908   -1.00103507501785   -1.36814709871442
H          -0.87882374441194   -1.65502923809368   -0.54126020563585
