    26
        -50.44597410  Gyration_radius:  2.63441762473 Dipole_moment: 3.257
 S          -1.24129822396608    2.52662153093968   -0.21569425597234
O          -2.05553499438033    1.56894274906485   -0.91173226184984
O          -0.97327899042213    2.24390695312028    1.15775317454770
O           0.02985286554094    2.79705227213348   -0.99916345072777
O          -1.97299660195857    3.91690964062383   -0.29864262584503
H          -2.25069085252556    3.98243738859677   -1.20844017144666
H           0.78311004230142    2.01289396145152   -0.84381132682990
O           0.89912561590093   -1.30897233429162   -1.76816492272401
H           1.35031246951047   -1.68356652098221   -2.52521617436997
O          -0.92536469110952   -1.62389004517792    1.63585009328215
H          -1.66003699357065   -1.45353226924222    2.22665688740438
O           1.63953270019042    0.98589054980897   -0.60700471301938
H           1.35459352199896    0.21085554636252   -1.14193584327557
H           1.47001773899348    0.73505093269227    0.34925544845007
O           0.88616768852015    0.39478196253437    1.81019148891563
H           0.29733402495223   -0.38867720378236    1.80079264660668
H           0.27886437874149    1.15189025204971    1.84443683627778
O          -1.72030724076178   -1.11177418675604   -0.81672191158263
H          -0.90675468958119   -1.20268178493724   -1.33536862084510
H          -1.27552470432681   -1.47442430533419    0.71683155442820
H          -1.96411639198568   -0.17070281461818   -0.87002587555825
N           1.65433256999594   -2.49412134168408    0.47710995504527
H           2.06864812722110   -3.41635905891136    0.52195234849847
H           1.19307601165279   -1.82894466642178   -0.95883406049278
H           0.77773317651824   -2.51900866633968    0.99063479085526
H           2.26320345258675   -1.85057855088170    0.96929097024355
