    26
        -50.46187969  Gyration_radius:  2.75830246753 Dipole_moment: 3.120
 S          -1.61801913693854    0.39672947789579   -0.94373954769449
O          -0.60248526324685    1.43870679298338   -1.03606172253791
O          -1.21083728563847   -0.81609754346513   -1.62432285690043
O          -1.97180703409095    0.13250780664657    0.45842350677988
O          -2.91172200023870    0.91551373906344   -1.65589348896614
H          -3.27403030017111    1.58423650487079   -1.04019680464107
H          -0.87706585311159   -0.98312930642891    0.84774250420741
O          -0.13879730015197   -1.64495395117626    0.88640077360416
H          -0.39064070288071   -2.30980285352549    0.23926532452340
O           3.31188854577176    0.72300099345498    1.37403162121321
H           3.24714297407341    1.59411537671814    1.76853186929974
O          -3.59504308412274    2.19468549573654    0.56976845145737
H          -2.94485305087345    1.49817397011683    0.79612564223862
H          -4.43002901338641    1.91936188824764    0.95495866442228
O           1.09086699765880   -1.09747495259423   -2.92039166649195
H           0.18829678683632   -1.08680679234473   -2.52904259154732
H           1.01306556418809   -0.64321610400643   -3.76040911065824
O           1.77057474423013   -0.99394310658362    2.80841691453765
H           2.85736133849257    0.11040656897907    1.98777514158089
H           1.00391454736191   -1.22627913286185    2.26022278947760
H           2.08442268238310   -1.81149967784665    3.19800521842456
N           1.51611520947524    0.02942598333480   -0.52666138248460
H           1.74705615965422   -0.38199925637560   -1.45010316205969
H           0.77204657288039    0.76462596008455   -0.70922739579324
H           1.03242278824654   -0.69935031952104    0.03758552228520
H           2.33015512353596    0.39306244863768    0.00879579565929
