    26
        -50.46539902  Gyration_radius:  2.43470901102 Dipole_moment: 6.435
 S           1.19382708355189    1.90309437262824   -0.67836585460886
O          -0.17471185632501    2.14194131131513   -0.22442437182484
O           1.32591897699223    1.65825257767469   -2.07960670566628
O           1.98698328272251    3.23125879523900   -0.33031636356479
O           1.81401289749875    0.84365594074837    0.13151195415707
H           1.55455177606016   -0.33873269021975   -0.94678293081337
H           1.67281682588283    3.45412182314725    0.54076645991696
O          -2.41907226087244   -1.14728517785483    0.13728911170341
H          -3.29968333021423   -1.40105433275808   -0.13975010865940
O           1.25841343447862   -1.05423824958206   -1.56162941577647
H           1.65155754891019   -0.81620716926325   -2.40432072358273
O          -1.32657235582970    0.88633168254974    1.85082366771598
H          -1.92281088896424    0.26877080239558    1.40684052349967
H          -0.96002615261710    1.45135234588764    1.14053476871567
O           0.87164234048712   -0.50916493729187    2.17964701495143
H           1.39297382376833    0.02080992712182    1.53633845951415
H           0.04192398319973    0.02371329615266    2.29138759265389
O          -1.25371649468736    0.23625498298543   -1.70586637988982
H          -0.42539623262020   -0.20256827683907   -1.95183374956645
H          -2.04141697541646   -0.58312329434056   -0.60421668807808
H          -0.96713138607446    1.07052194589494   -1.28232481039363
N           0.00078297417886   -2.26421719999187    0.53155599443314
H           0.41296210979072   -1.58025563208439    1.30807066133081
H           0.49482486631301   -2.03887575043874   -0.34696869491768
H           0.12277477575372   -3.23843184088192    0.78221796083531
H          -1.00542877596184   -2.01592525219830    0.41942261790816
