    26
        -50.45745696  Gyration_radius:  2.39275700175 Dipole_moment: 7.911
 S          -0.85934798471851   -0.04664756970384   -1.71077194475833
O          -1.02274974357578    0.08282813961974   -0.25556129029019
O          -1.31906175993504    1.10307414443591   -2.42614117514740
O           0.74998700817329   -0.12547387045512   -1.88501089140816
O          -1.30884883749414   -1.34322399115832   -2.16826367620925
H          -1.43292803655945   -2.26954912949142   -0.88735006551339
H           1.12520613744082    0.70223221287668   -1.45816198561478
O          -1.28113722420424   -2.90589884022384   -0.13200189021586
H          -1.40671152172979   -3.78043257675689   -0.50564053682543
O           1.46321200118309    0.21097808006192    1.96095638657603
H           1.87686212665736    0.16039677909442    2.82363990449770
O          -0.89807476411304    2.71266318518243   -0.19880748365522
H          -1.19436189266983    3.06433591977631   -1.04246169201655
H          -1.07841199226165    1.75002666838227   -0.27877684657512
O           1.61710180227159    1.81450218621317   -0.41390736849863
H           1.73247136980167    1.35904037972975    0.43251158276451
H           0.79441409117576    2.34382450208367   -0.31812808472547
O          -0.99616852808835    1.00899871626553    2.22980082463137
H          -1.08520319070673    1.92934261939177    1.95886386070299
H           0.52858069613255    0.54097382638792    2.11739055242048
H          -1.26122712059636    0.50117192359443    1.44066278618837
N           1.07133585455852   -1.78200226963694    0.15862883573984
H           1.01829943470792   -1.20945894788348   -0.72615108800714
H           1.18240617575072   -1.09885013048873    0.94395989245848
H           0.13487674057087   -2.28917844283174    0.21280386384106
H           1.84947913822873   -2.43367349445676    0.12791753963757
