    26
        -50.44727140  Gyration_radius:  2.5023963597 Dipole_moment: 6.990
 S           0.77428907528831    2.24947703438211   -0.34507142531959
O           1.57467175605708    1.06469174393986   -0.09746782157783
O           1.38665845418823    3.26551513269300   -1.11766341326005
O          -0.54964593088433    1.76766982574369   -1.02408440518085
O           0.24847312608893    2.78824894287792    0.98985489814332
H           0.44891076276948    2.11251922226267    1.72527196923147
H          -0.21280796557869    1.24152397652593   -1.81547411683416
O          -0.49556739125802   -1.94360881722428   -1.73112283477634
H          -0.96615314886267   -2.55962224387456   -2.29342767060198
O          -0.52924865305462   -1.24372600229615    2.25421858882743
H          -0.44010718062461   -1.89705167147957    2.94961144193248
O           0.66001894993108    0.27786241440584   -2.69365558115498
H           0.29768325157415   -0.60470562528820   -2.44999593045174
H           1.49596604403150    0.37393648254827   -2.22568099399588
O           0.92522979120894    0.97965384873589    2.63721640707783
H           1.68104092405187    0.70744772815538    2.10437088573694
H           0.28290099338852    0.23405561035917    2.59358932747223
O           1.25880381064123   -1.59031724707858    0.37005862663485
H           0.77528631190608   -1.91078606042617   -0.40674667687807
H           1.47395379211780   -0.65974080402843    0.17848459689591
H           0.14105614466648   -1.48112412561164    1.55557427119586
N          -2.14447397538537   -0.59951058487273   -0.17523138116054
H          -1.87904744897478    0.36112724741444   -0.37240238514922
H          -1.87067033973492   -0.79652228611144    0.78332586349108
H          -3.15267052089010   -0.66364915048012   -0.23242436713670
H          -1.18455066269643   -1.47336459129356   -1.16112787316526
