    26
        -50.45498073  Gyration_radius:  2.47754848835 Dipole_moment: 8.719
 S          -2.24901968844047   -0.54670682277871    0.86416030280375
O          -2.26771761594495   -0.70110268403046   -0.60969512349331
O          -3.20439905077220   -1.34873784008506    1.54359716006686
O          -0.86104693646517   -0.73401074819186    1.33490994416013
O          -2.57686376493393    0.96863166201079    1.12002577890614
H          -1.88089066208151    1.43983033512899    0.62996912064117
H           0.26217668205029   -1.71511691815415    0.87453850689980
O           0.98459185722441   -2.27803423499786    0.46802349175973
H           1.01787325036661   -3.07939292594048    0.99144487775572
O          -0.46632728579373    2.30643738625813    0.04155492625799
H          -0.61178001251450    3.24044092360636    0.20016721166153
O           1.09502188570503    1.18573279817956   -1.80619728394451
H           1.31831011530760    1.83999094971060   -2.46937788764711
H           0.48672708004028    1.62644321178835   -1.16600322878092
O           2.59232437550256    0.01943994261028    0.35722643985520
H           2.20237821867745   -0.86555860824252    0.42620393291320
H           2.25898746171118    0.40086418047749   -0.46529493899925
O           0.79027335616698    1.23225363857273    1.97678042494387
H           0.16411116650225    0.47835330924892    1.98770192915103
H           1.60404706176846    0.87259876780333    1.56500526805729
H           0.06484397131942    1.96179338692693    0.84484724048579
N          -0.12096566102931   -1.27448251157860   -1.77362994053923
H           0.37638357397066   -0.38602638530836   -1.94990232165674
H          -0.29431001532950   -1.78203703956408   -2.63304683897046
H           0.41240782537059   -1.84309649306506   -1.09147408197485
H          -1.09713717837884   -1.01850729038665   -1.26153492031168
