    26
        -50.45498074  Gyration_radius:  2.47735855547 Dipole_moment: 8.718
 S          -0.16701562942731   -2.21118164554924    1.08802147411297
O          -0.13389556952154   -2.41618713025621   -0.37940288245551
O           0.32169934922143   -3.31345873923321    1.83888699527470
O           0.50116065755704   -0.92960711103343    1.39492898352260
O          -1.68306787353389   -1.98638546919195    1.43452875857927
H          -1.93204515513993   -1.22186367061946    0.88676608755391
H           1.76311208393434   -0.24948705428216    0.77779008720959
O          -2.32193083985141    0.34045532813756    0.17562224342738
H          -3.23791307911397    0.53274282130850    0.38228194277084
O           2.50276460646717    0.20093531795082    0.27372703309314
H           3.30520992000977    0.01050221161073    0.76060686510085
O          -0.88220469165009    1.25763861306538   -1.87249434299745
H          -1.45249342312763    0.89393922363190   -1.15374827355694
H          -1.47126346789183    1.62612228738214   -2.53197199529718
O           0.86302921822784    2.46930423471353    0.06830471001738
H           1.57232302512206    1.81313738129906    0.14834540673947
H           0.33582016090847    2.20863424762610   -0.69802789233631
O          -0.75926673216611    1.33781681284971    1.91974380402456
H          -1.76538421735913    0.79733299978052    0.90204597060376
H          -0.25557134972274    0.49881225393197    1.97350380587151
H          -0.18112226485953    1.94147241980140    1.40738173377174
N           1.03411725811874   -0.70542612668389   -1.79402441987264
H           0.50646027390839   -1.48666822886021   -1.16791144809922
H           1.79380842344086   -0.33353286660652   -1.19587266855182
H           1.39368737446561   -1.11815871564985   -2.64642212421737
H           0.34998195198395    0.04311061487805   -1.99260983428817
