    26
        -50.45514045  Gyration_radius:  2.75148636917 Dipole_moment: 5.667
 S          -0.10976941511173   -2.67996301793240   -1.10634032942457
O          -0.62241206393307   -1.79247128920403   -2.15795659484212
O           1.13318564196760   -2.21457152809237   -0.54594281857433
O          -1.13890686076058   -2.94494796894139   -0.11012191959460
O           0.18758667927086   -4.06553306177870   -1.82035873051267
H          -0.67233730394047   -4.31804903348841   -2.14285969302814
H          -1.54258629050212   -1.67991877865177    0.73804758183361
O          -1.83669638717517   -0.82736469050969    1.16839803642477
H          -2.72234372913881   -0.99529445202489    1.49335466851579
O           1.79292994319451    0.22064592032195    0.17696584612568
H           1.76341137210830   -0.72945687592327   -0.06871379004093
O          -0.53969639589983    2.83752822459128    0.69356071046878
H          -0.73736370693223    3.67786252677854    1.10787481688753
H           0.33962132535764    2.93691531102947    0.27038745533667
O           1.94028218578639    2.86019914546481   -0.39313935091397
H           2.08582040119283    1.89949859340554   -0.30802046442608
H           2.68679401778659    3.28054673914897    0.03634362497150
O           0.23275693060716    0.67117127268931    2.28778171337930
H          -0.11905093614268    1.48411155821865    1.88630954063008
H          -0.45342199594940    0.00248853117627    2.14776985785151
H           1.43697009919567    0.27447665083967    1.09464780878278
N          -0.63493425222905    0.44933514353133   -0.90527601480247
H          -0.67009989374748   -0.39873193999569   -1.56242992335975
H          -0.91713668041437    1.32427678752401   -1.33529637967161
H          -1.24294734475119    0.22034497540661   -0.09613941583373
H           0.36034467018740    0.50690125643881   -0.54884623620084
