    26
        -50.46038445  Gyration_radius:  2.56601777598 Dipole_moment: 4.006
 S           2.33721974187493    0.11067869272869    0.45224751845352
O           1.89807420284581   -0.78706093330982   -0.62076044119335
O           3.00852050757657    1.28328587762386   -0.00147293305894
O           1.19262757557709    0.41711226790690    1.33314255769374
O           3.33802760674332   -0.73380660488319    1.34035198308891
H           2.86391457450816   -1.51508399639599    1.62160850881493
H           0.81517561000372    1.88573637129017    0.50000428953104
O          -1.98332078960767   -0.95684507681911    0.29657866066377
H          -1.32472721017749   -1.58169559905508    0.66624578398230
O           0.50611727884438    2.52270239144054   -0.17321658600907
H           1.32171333601269    2.89811401533223   -0.51695446900450
O           0.33277137974001   -2.08211416506566    1.15342442394906
H           0.56424140994035   -1.18252793295644    1.45405057222569
H           0.81677691395797   -2.16952221610608    0.32135557763921
O          -2.58690289529404   -0.89929223184137   -2.52616674472105
H          -2.69138576948281   -1.09678038584783   -1.58554212983734
H          -3.30114677791916   -1.34573406261945   -2.98175867060261
O          -1.41909019918419    1.15454644029617    1.85817798554264
H          -1.42255556060382    2.03668650486348    1.47905914286025
H          -2.04767537834133   -0.24215253195768    0.96304717217010
H          -0.48540506364606    0.89701730504783    1.90639568008155
N          -0.34858515783126    0.28933234263440   -1.41454500577603
H          -1.03939263605614   -0.16244559926231   -0.74573405047689
H           0.57771046782048   -0.20045826388083   -1.27909329823718
H          -0.72544377238312    0.17548675934253   -2.35449802041393
H          -0.19725940492610    1.28482063149777   -1.14594750736067
