    26
        -50.46919393  Gyration_radius:  2.46722406121 Dipole_moment: 3.372
 S          -0.20137781820288    1.85679497435424    1.50714394384005
O          -0.45106788877786    0.45988963221615    1.84047104291368
O          -0.85125710769392    2.80741819039964    2.34731349566794
O           1.37518441251249    2.08311805699492    1.70747595976109
O          -0.39598865631415    2.06505622469097    0.06467420745408
H           0.96702928396697    1.42632488909698   -0.57008158345485
H           1.37215841166747    2.52746589119919    2.54740531498596
O          -2.00371147275239   -1.41422895658317    0.70128250852625
H          -1.54834232718754   -0.80241904329440    1.31269478783612
O           1.74910176213971    0.96136259665500   -0.95260014632250
H           2.46771990750290    1.59425961387461   -0.92320865348754
O           0.28502185710062   -0.89359710677077   -2.40680736433284
H           0.31217719538823   -1.66029993578242   -1.80364307512082
H           0.96315903368097   -0.28008241012084   -2.08004292708863
O           0.23338477004974   -2.66508141090436   -0.31694115566874
H           0.81875973210445   -2.06742396903653    0.23665619470206
H           0.56170252987450   -3.55577906616283   -0.19382077273993
O           1.63509221359413   -0.94324277714132    1.02766675496058
H           1.93680323768747   -0.32278863241945    0.34268659789312
H           0.91707984964153   -0.45866399781557    1.48586763381182
H          -1.31789135693392   -2.04458348226667    0.41356791512208
N          -1.79314416488449    0.27509772338024   -1.28004452685588
H          -1.04659732870900   -0.17406723288012   -1.89090421053218
H          -2.05703938485764   -0.43876921401013   -0.52653127810435
H          -1.33449799424703    1.07628267523817   -0.77364053077241
H          -2.59345871628595    0.58795673702755   -1.81664012318172
