    26
        -50.44727155  Gyration_radius:  2.50198864569 Dipole_moment: 6.990
 S          -2.03203047306481    1.28112837765565   -0.05302379856682
O          -1.20801818749096    0.97089834812117    1.10046581597779
O          -2.75957585016756    2.49408630138864    0.00854834699922
O          -1.08803704210881    1.27111711626074   -1.29980242851666
O          -2.94197141411419    0.08567248122580   -0.35615822993755
H          -2.66119407491772   -0.70372623743406    0.22362172398037
H          -0.36449374513279    1.92122758328230   -1.03421073216929
O           0.33012961406140   -2.56530539872611    0.46949179693447
H           0.62943944536089   -3.35291181435436    0.92599741765975
O           2.52252672350037    0.74342004267409   -0.32194399974525
H           3.38368341237149    0.88235891363920   -0.71720010381178
O          -2.08936132729008   -1.69446630838879    1.23916202398516
H          -1.77268218161404   -1.04308469285828    1.87535677388728
H          -1.28292076257065   -2.11612115589929    0.86190864766849
O           0.68928750985881    2.69585984718891   -0.16800410908152
H           0.26485902061724    2.60156838256138    0.69100452639622
H           1.45477659593679    2.07646899592546   -0.17612570956826
O           1.05846000382574   -0.38501606765269    1.72748508977650
H           1.74124047418790    0.02994212848302    1.17834177599038
H           0.25590260008668    0.15132083713633    1.59660496020004
H           0.69722177703647   -1.78849126738540    0.97514535026510
N           0.99878849729442   -0.78439259257238   -1.83525494976096
H           0.16278780478648   -0.21488798278976   -1.92995053354191
H           1.99960512670897    0.14699963808730   -0.94769941662311
H           0.74855159961238   -1.59571046299216   -1.27690287836471
H           1.26302485323036   -1.10795503257559   -2.75685739003081
