    26
        -50.44244547  Gyration_radius:  2.56262153933 Dipole_moment: 6.893
 S          -2.47194462476211   -0.88353905252208   -0.66803706682233
O          -1.84306508536318   -1.89891031225137   -1.46319261869006
O          -3.75708933301699   -1.13001915740809   -0.13027772132690
O          -1.47179680395576   -0.52804267300997    0.49549968195569
O          -2.51713781399083    0.44941477609089   -1.46360764998340
H          -1.59860780724588    0.65559462168070   -1.78131533919842
H          -0.68429541702118   -1.15273428192686    0.34263588375122
O           0.37512045768298   -2.18994708256742   -0.05692104032345
H          -0.22074219474261   -2.51031147406630   -0.75360773817704
O          -0.09047246478316    1.23422386641881   -2.01372396824538
H          -0.10471812250662    1.92258656279648   -2.68076104444190
O           2.25196025864099    0.71572990749305    1.42670681340473
H           3.13375494665416    0.65543133945448    1.79694747881007
H           1.71276175403747    0.03476824832997    1.89182704359964
O           0.71011829365960   -1.19965819330169    2.51216450618721
H          -0.21198895638948   -0.93526863465949    2.56660721499816
H           0.74997471779791   -1.86380282051013    1.80877812444455
O           1.97597979580271   -0.40221391011898   -1.09250056624701
H           2.16459670403077    0.09314591606092   -0.27454447314669
H           1.06743635854092   -1.63600750117832   -0.51471580154213
H           1.33714180115575    0.13022653302837   -1.59036722576199
N          -0.09682013707223    2.16816559121527    0.41833147983170
H          -0.79549018602047    1.53240441723153    0.78938185134823
H           0.78957287031954    1.93648730496331    0.85791013255218
H          -0.05434827699957    1.69100443820507   -1.10460042137545
H          -0.34990071444525    3.11127157055846    0.68138245439292
