    26
        -50.44596056  Gyration_radius:  2.52166199799 Dipole_moment: 3.877
 S          -0.91008809108708   -1.71342134538520   -1.54148023601753
O          -1.96951294660409   -1.36346610285155   -0.62171257905618
O          -1.27531355684210   -2.43736511411946   -2.69941348442040
O          -0.17690880240074   -0.39068706147924   -1.91773625986899
O           0.18323091567345   -2.50171914330886   -0.78193227069173
H           0.64409891664517   -1.90134190173080   -0.12698454185874
H          -0.62913912649841    0.35362876177353   -1.39407234283432
O          -1.44801368682220    1.28609423017941   -0.48703602884053
H          -2.22711153898879    0.71814234981840   -0.48707779639960
O           1.51403626033244   -0.92256224917634    0.76873519312031
H           2.24316207895605   -1.40513970433942    1.16118207071309
O          -2.07145940668562   -1.24158926269187    2.05041074135899
H          -2.92252861080284   -1.56561356208555    2.34680449598132
H          -2.04733761078966   -1.37972534275683    1.08273471944710
O           0.86879070137555    2.93539085051331    0.24607675690235
H           0.06945483104142    2.95086396366983   -0.28879290284529
H           0.61572068390240    2.51523171332966    1.07635540989332
O          -0.32091000745494    0.79599196435554    1.84717699101385
H          -1.04067260636316    1.16367163261280    0.41526321059366
H          -1.00113819707778    0.18967385204656    2.19030632924255
H           0.40995759827645    0.20549077674272    1.59248357120808
N           2.37166877442333    0.79680465594725   -0.94681799613183
H           3.34508038492941    0.92430708872672   -1.18916744424232
H           1.85395406305344    0.55995230340011   -1.78547230286523
H           1.91646765939362   -0.25710858145026    0.08566522017139
H           2.00451131041929    1.68449520826248   -0.59549850357806
