    26
        -50.45731625  Gyration_radius:  2.56137195441 Dipole_moment: 6.770
 S          -0.60149443921974    1.51024026044857   -1.67057899381562
O          -1.77795826736267    1.91879759153844   -0.93937276857570
O           0.63710951222812    1.58203529708112   -0.91202625654451
O          -0.76757844291843    0.20490618640205   -2.29742643501335
O          -0.42403413628032    2.55962375128822   -2.85344101357119
H          -1.31617522451710    2.67999019251462   -3.16291198990466
H          -1.29895718798684   -0.60434590698435   -1.11069153330094
O          -1.57589848535336   -1.18023873951398   -0.33719879945442
H          -2.49425749819472   -1.40360020261367   -0.49546094542226
O           1.17121368327723   -1.49085686865062    2.55339443972441
H           0.99003642954636   -2.01937246355753    3.33141782708377
O          -0.53425881185942    2.45212322063793    1.35141915313535
H          -1.25672793021032    2.44219289931662    0.69916579108624
H           0.24062380983835    2.31047565696550    0.78886363476827
O           2.34245678846408   -0.32779831381686   -1.18839385100190
H           1.67277907287229    0.40805141976879   -1.21251259629328
H           3.06801796660309    0.01390901810255   -0.66093342778592
O          -0.93785729757884   -0.04788708462201    2.16354003239055
H           0.40525571014691   -0.84404022597908    2.48145055238726
H          -0.78484975817042    0.91713983959448    2.02249240759939
H          -1.29428063614828   -0.36886963691993    1.32135136406617
N           0.90895166000997   -2.17111023293699    0.02154153394322
H          -0.08807040054679   -1.93449019127502   -0.16702471691966
H           1.51132828387941   -1.46690768600654   -0.51269447882677
H           1.08456091958893   -2.02140276924473    1.05689287498300
H           1.12006465989696   -3.11856501153031   -0.27086180476179
