    26
        -50.47114519  Gyration_radius:  2.41065390342 Dipole_moment: 3.629
 S           0.38699024851408   -0.69287874653949    1.84162280584299
O          -0.10157358928002    0.66327456378893    2.02909529825791
O          -0.60358991959896   -1.58565316208842    1.26344684327593
O           1.64838146320265   -0.72783425326505    1.12157332066556
O           0.67637904055100   -1.26092617692808    3.29125922709912
H           1.26427265878465   -0.60588413053918    3.65184226756368
H           1.59936095687418   -2.29803564848613   -0.36253498506085
O           0.74674388803433   -2.51569590920635   -0.75831060270182
H           0.11912534568914   -2.34114789027165   -0.02082885939213
O          -1.84933255004319    1.01789397613599   -1.39543301903625
H          -2.64684690339458    1.26667600234239   -1.86400601075473
O           2.12596792228533    1.00440808919851   -0.83840040659990
H           1.55891829302331    1.75515355722593   -0.54025151092493
H           2.13403361013480    0.39322461456975   -0.07110180076688
O           0.13752628712654    2.49070881907350    0.06383594902559
H           0.06774128429941    1.94957823938540    0.87348204405938
H          -0.60611009373125    2.22272647944019   -0.49254667684995
O          -2.50784654866875    0.19457245087587    0.98007972297366
H          -1.91845795138185    0.72305994623660    1.54176011289484
H          -2.15038436364075    0.68265014936707   -0.49907430215544
H          -2.08918820670710   -0.68449883647899    1.03659094174936
N           0.38697189922973   -0.33440816936655   -2.20153799364704
H           1.17214785347044    0.26883181395269   -1.74119857900902
H          -0.52333013988397    0.11511937599694   -1.98335437760042
H           0.51962097328210   -0.41807293975088   -3.20297591092421
H           0.45247850178940   -1.28284219466979   -1.72303349798165
