    26
        -50.47229037  Gyration_radius:  2.4799849955 Dipole_moment: 1.991
 S          -2.06426220376224    0.81517770716843   -0.52045118084273
O          -1.30142254330129   -0.26784616493870   -1.13464625884190
O          -2.20901464751894    0.62765958285629    0.90843851062363
O          -1.54645599252186    2.11670672739508   -0.89445062315862
O          -3.52554414864113    0.73671633941196   -1.12863929507946
H          -3.39704880957346    1.14242523228947   -1.97944703515857
H          -0.10618452179735    2.26367971085030   -0.21281771298290
O           2.28787838861731   -1.38788477236243   -0.53769054995623
H           3.07429474698581   -1.71654654618745   -0.97359856571417
O           0.81943852723112    2.31022322607878    0.13933047460446
H           0.94250353695486    3.21386340678084    0.43426247888268
O           1.75359923576687    0.21554700172977    1.63634783707563
H           2.12160920640595   -0.36910903615028    0.94949989348273
H           1.46633688228775    1.02025714300220    1.16459937331941
O          -0.19986031018358   -2.52996424894902   -0.17894233321701
H           0.73726778944229   -2.33006584588896   -0.35528927751079
H          -0.69749701768019   -1.85771616262553   -0.68352105731541
O           1.12248283247346    0.46582277517212   -1.95040487431180
H           1.24167464996446    1.27448043665314   -1.43371329585953
H           1.89322787689251   -0.69881200214116   -1.14633197150890
H           0.18967322818255    0.20913921729790   -1.79412514142658
N          -0.52652657151233   -1.06398740834123    1.97164621358612
H          -1.26141439814664   -0.38851924466676    1.61824580963214
H          -0.43210182728164   -1.81764155774134    1.22473794839043
H           0.39856873406821   -0.54123836010940    2.00068503747178
H          -0.78122265335445   -1.44236715658265    2.87627561581507
