    26
        -50.45390971  Gyration_radius:  2.52637391715 Dipole_moment: 5.340
 S           1.17189206572430    0.46784960459867    2.10427260083229
O           1.43750999805016   -0.93546345376303    2.33142198025640
O           1.66939287133107    0.93944249623898    0.82420995135059
O          -0.24827309428838    0.77628660461143    2.28410553431912
O           1.96216328334377    1.28769458173809    3.21343623585356
H           1.80988227204434    0.82115615907474    4.03130660437118
H          -0.89379129814169   -0.59663942496094    1.71702733968181
O          -1.06386526694436   -1.48089985223670    1.29859950719422
H          -0.74634244038085   -2.10959160789034    1.95199908042587
O          -0.64581202297459   -0.89442523402951   -2.71699152304789
H          -1.03409189392783   -1.51401209602033   -3.33472129385844
O           0.81925609418158    1.43619570954205   -2.26053308562425
H           0.26791565755583    0.74810228015628   -2.65896954622762
H           0.63853578504968    2.24897836415507   -2.73416829513873
O          -0.94614258956103    1.88960965753905   -0.09898255347836
H          -0.11837231921801    1.85063519278593   -0.60482973537653
H          -0.70715819169140    1.65755473403601    0.81432685294890
O          -2.34866541352386   -0.19591903045176   -0.90895435797423
H          -1.96055844864434    0.67406032964199   -0.63218096873318
H          -1.38090300108211   -0.62377980504126   -2.08270197485870
H          -2.24919935082158   -0.76404124610506   -0.13657491182771
N           0.92137977143740   -1.15263456046068   -0.50478728437416
H           1.66369435885227   -1.84369166136241   -0.46592329504558
H           0.51428978957776   -1.06586577802411   -1.45853404619350
H           0.15727176814715   -1.39924058246547    0.17913715055053
H           1.30999160632944   -0.22136137115162   -0.15098998611130
