    26
        -50.43883855  Gyration_radius:  2.61707105534 Dipole_moment: 7.875
 S           0.76772688632505    1.87328146572435   -2.11307117989936
O           0.93815537145251    2.25859166942741   -0.73621468559515
O           0.85828741462469    2.88767664635597   -3.09493418610308
O           1.76078020440484    0.73768456587069   -2.46535209743132
O          -0.61056146069724    1.13228363564136   -2.20994681128272
H          -1.06507984384760    1.19362003410624   -1.32454606975928
H           1.57648531830822   -0.03033719683939   -1.86379848018635
O           1.18153904074170   -1.37432133767525   -1.04467184290088
H           1.39100272514615   -2.09978960362677   -1.63533286817488
O           0.42260990754570    1.18137795490693    1.65198359214659
H           0.77764039131487    1.74499246644616    0.94159728741106
O          -0.94400946126473   -1.16762203532660    2.58987107256225
H          -0.65748784046023   -0.25757425422009    2.42014130923253
H          -1.21190327456751   -1.20295529559267    3.50906660024766
O          -1.75543878882555    1.29909700065539    0.11935509716846
H          -2.02901059849233    2.21499623451409    0.20094224059311
H          -0.98474957132921    1.19467785755027    0.73221148189731
O           1.79731729917594   -1.13658629601652    1.64241561400800
H           1.77823595001135   -1.26257627348485    0.68017935723478
H           1.06950747423418    0.44309135992008    1.71105799682456
H           1.04000621963761   -1.61934300142919    1.99408821248422
N          -1.31747163268014   -1.63882688828375   -0.32512665946907
H          -1.82057782860969   -0.79312652022005   -0.56807591985301
H          -1.83988045849885   -2.42845770444677   -0.68251840270211
H           0.18959198069697   -1.45353059920755   -0.81928683546111
H          -1.31271541434704   -1.69632386476676    0.68996617702873
