    26
        -50.45993521  Gyration_radius:  2.82275514456 Dipole_moment: 3.722
 S          -2.11091012804090    0.74918055586108   -1.90468046863380
O          -1.37505781034777   -0.42041994892122   -2.38501684809816
O          -1.28389913588299    1.94629951207280   -1.95251482721029
O          -3.29066382896072    0.97750818264480   -2.94042755631198
O          -2.72997657537513    0.52937023304343   -0.61715868561154
H          -2.08624520602500   -0.15733550056798    0.66576078633418
H          -2.81496867834510    1.11488168846409   -3.75379985658447
O          -1.60701997581943   -0.65157868128607    1.38339791368011
H          -2.26603856542639   -1.20204241993071    1.80776539320873
O           2.44044044551156   -0.84216349297952    2.27896377399617
H           3.19087267232402   -0.40229058786553    2.67932772625148
O           0.73425514431968    1.93510013401911   -0.36530453857239
H          -0.08350084006744    2.01214570315924   -0.93391781603925
H           1.36983649346435    2.54518080098524   -0.74226011543396
O           2.56140627856418   -2.25270133854127    0.01108564819918
H           2.62639983765419   -1.75596701949146    0.85790852218348
H           2.56999106735774   -3.18198975970526    0.24322017667510
O           0.47621583038599    0.96573964596675    2.23710591967076
H           1.70009671692288   -0.18851893572649    2.30577468079552
H           0.55072927683987    1.51008376003906    1.43888720276741
H          -0.36033143256735    0.48419721920348    2.14524502440890
N           0.37256662720431   -0.76389778923010   -0.49665850471026
H           1.16627829053335   -1.43737429070795   -0.51517187991344
H          -0.25253647081766   -0.77479770991937   -1.35296985347257
H          -0.23529641319358   -0.94291496577233    0.32124604456989
H           0.73735636979760    0.20430500518256   -0.41580785214913
