    26
        -50.45379743  Gyration_radius:  2.75507671822 Dipole_moment: 4.850
 S          -2.37245787030690   -1.29476670045249    1.12137456989900
O          -2.71510654210568   -2.31801161352856    0.16611441574099
O          -1.22589726694895   -1.66664734178881    1.95472024509802
O          -2.17627401395776    0.01924407729187    0.51595839840442
O          -3.61057760281928   -1.13533410374094    2.10666175314171
H          -3.88338222332100   -2.03318483667052    2.27360399817012
H          -1.59666946560551   -0.52897471371625   -0.97742907658938
O          -0.10365099393933    1.71352815403650    0.42917334638349
H          -0.98771146392540    1.33193322741375    0.59164545501066
O          -1.06822288074060   -1.06322664278294   -1.61141654430771
H          -1.54378859472795   -1.90182833138178   -1.61455584150115
O           2.86036147550177    0.20545415953809   -0.96618285797329
H           2.85105531514373    0.91070019840676   -0.28328287371772
H           3.68669811156048    0.29910338276100   -1.44100124021558
O           2.54656523351365    2.17079972834331    0.86464151687989
H           2.77797811131485    3.07906656817243    0.66422335917199
H           1.57509914601905    2.14621632094151    0.92027796476800
O           0.51838144169288    1.21751458995875   -2.12639849851692
H           1.37136369123958    0.80786704227588   -1.90232089688964
H          -0.08456886194522    0.48946194448637   -2.32067383614961
H          -0.01408806354208    1.76145646797159   -0.55085601324336
N           0.67777283828918   -0.86044268171613    0.44305889004174
H           0.25662520128902   -1.09976054201042   -0.48063633241054
H           0.57976949940871    0.18178329388830    0.54730384032242
H           0.02793772498101   -1.29046008600073    1.18149426217673
H           1.65278806394186   -1.14149158171712    0.49450198630699
