    26
        -50.45379744  Gyration_radius:  2.75501845895 Dipole_moment: 4.856
 S          -1.12385729290397   -1.47106118990462    2.26603556991186
O          -2.54965364474489   -1.42885220759100    2.06062731590997
O          -0.45900723677742   -2.43957134636522    1.38997862580343
O          -0.48741768143599   -0.16013310722600    2.17611746346006
O          -0.87662878288285   -1.96973183325428    3.75588223275470
H          -1.51558647128144   -2.66794377453373    3.86867040941721
H          -1.55849519060880    0.50811493841561    1.04790316484061
O          -2.12053777319672    0.56227199947054    0.24307374966372
H          -2.89186681622693    0.04410261738963    0.49984478938188
O           1.42898649566255    0.85348892485722    0.60326255698120
H           0.92762688963671    0.55973986724890    1.38804876936408
O           3.00267787076214    0.58426035079987   -1.60397305268376
H           2.65552926308653    0.62319545639641   -0.69539385828995
H           3.61744819968407    1.31507701237508   -1.68493543064997
O           0.63065088311001    0.57988449074242   -2.90337909807659
H           0.72028821172929    0.91516497927718   -3.79591145435011
H           1.53586166451451    0.55360508914498   -2.52448539477309
O          -0.22975168547311    2.33028135274382   -0.89070714124933
H           0.90561839280156    1.59473726929263    0.21936764385330
H          -0.06478248590062    1.81026129274369   -1.69567109605046
H          -1.08539860752189    2.03714092298947   -0.55411729984936
N          -0.08716343798305   -0.96708700301304   -0.67192677811396
H          -0.96973429154672   -0.41305105053251   -0.62948444703369
H           0.11010016319469   -1.28596884614591   -1.61622197493177
H           0.67412458310245   -0.33103685739867   -0.32210846938759
H          -0.18903121880444   -1.73688930791716    0.06950319409201
