    26
        -50.45208468  Gyration_radius:  2.43221369654 Dipole_moment: 9.809
 S           1.77224020031884   -1.29448064945290    0.38233833331440
O           2.41633931810887   -1.25063675081571   -0.90762340798476
O           2.54171719440162   -1.69545993761313    1.51835287973558
O           1.34195841132654    0.23677266708355    0.67850404855849
O           0.46598418737825   -1.99552163355148    0.32782540239268
H          -0.81371016112272   -1.47924632071870   -0.27306755539022
H           1.33688105427785    0.61516117222008   -0.21842042222652
O          -1.73126942732519   -1.11886838056956   -0.52724518043634
H          -2.30257800791653   -1.88874305553307   -0.52195406274035
O           1.24648173279852    0.89497220246712   -1.90256372527309
H           1.82288579935953    0.10341489736336   -1.81990343899667
O           0.11568627892306   -1.05521983148944    2.72278845769584
H           1.04664694072599   -0.92693019420340    2.93972948273729
H           0.18189527982208   -1.61441141350876    1.91407012602977
O          -0.08118255114389    2.60617439594161   -0.16039273755314
H           0.64677581516127    3.06738306887528    0.26134217455488
H           0.31528966056712    2.13357895800040   -0.91605007107856
O          -1.15567544979800    0.12724673537332   -2.88756867546934
H          -1.81058865002994    0.81779393276911   -2.99940807807393
H           0.47101605587246    0.58777886415038   -2.41541971167428
H          -1.41262858327608   -0.38708013337606   -2.09920657873907
N          -1.29933279579859    0.72492169925835    1.39462115997840
H          -1.66123587656222    0.05911374520420    0.67368089552288
H          -0.76186596895612    1.46700880566784    0.88360313874368
H          -2.05268165387166    1.12585749113313    1.94356758616981
H          -0.63904878323664    0.13941967532633    2.00839997020370
