    26
        -50.45745695  Gyration_radius:  2.39285891168 Dipole_moment: 7.911
 S          -1.86828847915718   -0.02583747329606   -0.41983964049902
O          -0.82974669074570   -0.29640421222979    0.58480861402130
O          -2.81615944365450    0.95457399766704    0.01072087048614
O          -1.02261760245035    0.61119577704050   -1.64681881840215
O          -2.38518958477653   -1.25793372454274   -0.97403627615567
H          -1.36409560381062   -2.40668937060677   -0.58468329035116
H          -0.53276008044247    1.40482589090416   -1.27503842145416
O          -0.61759257756053   -3.07005169676367   -0.54907093627944
H          -0.90914008256474   -3.81158935616110   -1.08320684998247
O           2.41693374430578    0.36733572523777    0.23175867491752
H           3.35379046842683    0.30843896614139    0.42353357977777
O          -0.94804878548695    2.06576509644753    1.74377297063895
H          -1.82591313330175    2.43709673958487    1.62249837839535
H          -1.03346661099710    1.15819928722659    1.37696594202910
O           0.48981037206862    2.36363708517846   -0.49750670491598
H           1.26923267824544    1.82460197987644   -0.29948436723294
H           0.01836157118167    2.46882732365760    0.35855217204698
O           1.06408837784118   -0.00983398950975    2.41926522450947
H           0.71307067392716    0.82478136384136    2.74886461906812
H           0.32607820440611   -0.39563256141404    1.91183596358970
H           1.94329891152309    0.23571305537743    1.10655089146636
N           0.93760282744834   -1.16225283299388   -1.45564444634688
H           0.15468290220921   -0.48596232055412   -1.66329258449834
H           1.56268881590547   -0.68466377698220   -0.76514879589032
H           0.45811566149532   -2.01182944184986   -1.02481906601095
H           1.44526346596734   -1.40631151127058   -2.30053766292871
