    26
        -50.45316420  Gyration_radius:  2.76342340009 Dipole_moment: 6.495
 S          -1.81971943703119   -2.41951814206570    0.16275264868395
O          -2.15560373726246   -1.47365980028300    1.22858809747562
O          -2.08713131856732   -3.78780220738292    0.45980931019792
O          -2.82395134675003   -2.03314136817216   -1.05469071941204
O          -0.49698142391978   -2.12178132207833   -0.38370003595554
H          -0.76902123661804   -0.91499047447507   -1.44981889604572
H          -3.49352353080102   -2.69987682822458   -0.94448632986068
O           1.62923487159001   -0.71021942812539    0.45220299284137
H           1.06204690397519   -1.46382927360339    0.20740397510553
O          -0.99480771588432   -0.06407719277227   -1.90286693207122
H          -1.83935483007335   -0.23400281684705   -2.32416922294961
O           0.94524637761804    2.82255785593361    0.30828155671916
H           1.49974546763803    2.37957395891556    0.98535013648926
H           1.28789224859432    3.71208974976117    0.21736090617500
O           2.43594622902878    1.35591938735257    2.02985360224148
H           2.25559624880938    0.48111963288386    1.64227088712917
H           3.38904460151776    1.42378557597510    2.10307969918344
O           1.61377378103848    0.93712500075371   -1.64625763549966
H           1.36818390586038    1.71246280351929   -1.11295653569858
H           1.82489164262210   -0.24650428583367   -0.39654894151196
H           0.79565990493709    0.63045270521116   -2.05932528881365
N          -0.73328599718261    0.57757459465243    0.71479700832806
H          -1.39180149450573   -0.21488376530582    1.04700930735360
H           0.24177161039503    0.19591717344678    0.79135746606300
H          -0.92086840594897    0.70330074279999   -0.29718233300271
H          -0.82298330914113    1.45240773393881    1.22188528683109
