    26
        -50.45316412  Gyration_radius:  2.76342780726 Dipole_moment: 6.496
 S          -2.37238709081381   -1.86546514933526    0.29050521821560
O          -2.74836812835502   -0.70816475342541   -0.52352954591937
O          -3.43725245235712   -2.45909301138045    1.02907693419903
O          -1.91129197705346   -2.98887053978199   -0.78925620377545
O          -1.14441282515584   -1.58791492163168    1.03345721236790
H           0.04870658845246   -1.87880032430240   -0.04302634921854
H          -2.69808745279774   -3.52201582012818   -0.83090591602379
O           0.67563347933755   -1.87209560907928   -0.80934011832425
H           0.40560040193457   -2.61969646353097   -1.34581713572733
O           0.20489338694577    0.63422240391569    1.70848790388250
H          -0.34082476044601   -0.16995709933201    1.77987697920988
O           1.80546099816687    2.07560592224526   -1.17775275977334
H           1.42596620889148    2.58143570727783   -0.42797394710098
H           2.52254762625006    2.60551225548162   -1.52701856240694
O           0.70419711674574    3.21895959308374    1.01666560833313
H           0.39607490989419    2.40154656634640    1.44662181366560
H           1.20541828008888    3.69603837896495    1.67957704784814
O           2.44451357495996   -0.10084620624972    0.45858922409893
H           1.11173612320201    0.31381547757704    1.48806010259449
H           2.11166342233636   -0.90299453207121    0.03467015792200
H           2.37435718477501    0.60211098274833   -0.20981125277446
N          -0.55522251379497    0.53853651595839   -0.88424593617698
H          -1.54863744502726    0.11363051389350   -0.81739996649402
H           0.07169357277271   -0.23667134348307   -1.16936464714406
H          -0.46896141738598    1.33574188904110   -1.50676588553010
H          -0.28301681155998    0.79542956721511    0.09662001407717
