    26
        -50.44244536  Gyration_radius:  2.56256335363 Dipole_moment: 6.895
 S           2.47506345259217   -1.09757664962907   -0.05981287581394
O           2.22645426620732   -1.61294786272193    1.25604488297556
O           3.80804638801574   -0.83389094674314   -0.45380930054907
O           1.82293846488461   -2.02947315389460   -1.11710408365337
O           1.61135880706449    0.21074678192508   -0.20998501560727
H           1.15575681686251    0.31020730838019    0.69332977147449
H           0.86768935738229   -2.15599861798546   -0.87475024053079
O          -0.75836793823714   -2.11035674848239   -0.74747262077699
H          -1.14397803603473   -2.83741583864637   -1.23908841205223
O           0.59701816299304    0.27744134231761    2.12369210441933
H           1.15702297513402   -0.49388265984839    2.30970816298837
O          -2.09029218292473    1.80174417072212   -0.02527230846208
H          -1.24646082570913    2.20945123915944    0.27861126724014
H          -2.79215756995304    2.36302402377503    0.30733589745229
O           0.27065217755489    2.72746236364849    0.86502845608758
H           0.98728765395641    2.54663166526769    0.25126401075088
H           0.41142270595880    2.13025760621019    1.61391303271482
O          -1.75399467632579   -0.57244006814464    1.36081841106463
H          -2.00787534401017    0.20543606566844    0.83121446582574
H          -1.49011623501322   -1.25699771349893    0.72745937702432
H          -0.32748037870017   -0.07451190518166    1.99247485650388
N          -0.78087946289218    0.13748350932562   -2.06453242194736
H          -0.84682571591126   -1.27377830477209   -1.32074340320563
H          -1.40211426408634    0.78634354744309   -1.58945577901634
H           0.17112622239420    0.41386754877783   -1.84705023777855
H          -0.92129479119748    0.22917327693542   -3.06181798714134
