    26
        -50.45971326  Gyration_radius:  2.45382718139 Dipole_moment: 7.641
 S          -0.61612547042359   -0.02693481168819   -2.32102824262286
O           0.80465077100385   -0.42680928077763   -2.29163585799005
O          -1.37653631160935   -0.64129847540041   -3.35393268843850
O          -1.19115404087752   -0.26557724393984   -0.97035666182038
O          -0.63729686842027    1.51875722490147   -2.51151280816076
H          -0.07754895047435    1.85797330634071   -1.77544207381412
H          -1.02302526631819   -1.50460361229590   -0.04526104359357
O          -0.80189286164676   -2.24671451804209    0.59130535816926
H          -1.40735493738968   -2.95925129719491    0.38365407503352
O           1.82438691767477    0.57800272191358    1.53231508357245
H           2.36257572460560    0.94669163760760    2.23320634589223
O          -1.85578904673192    1.57374189308342    0.71252521405464
H          -2.71110252772931    1.94591286807424    0.49629256667983
H          -1.66965028990850    0.88265332603256    0.02156663541638
O           0.58611449638499    2.31379340894000   -0.31348032462038
H           1.17347318145257    1.72199080961716    0.18107597483923
H          -0.24996291391201    2.31926982005044    0.18214914715962
O          -0.52519134154561   -0.11583888401681    2.41783670375041
H          -0.71042927662717   -0.95166196707361    1.96269421415364
H           0.93908570763126    0.34765694323357    1.94156885917692
H          -1.10478961799224    0.54207398226217    1.99557221700280
N           1.68023381603341   -1.50472962413152   -0.19481213105634
H           1.31241865037456   -1.02204976232177   -1.13882791824904
H           2.46383432675433   -2.11616323841323   -0.39094431339808
H           1.94082160733324   -0.74606190508882    0.46104435474400
H           0.87025452237329   -2.02082331164664    0.19442732410438
