    26
        -50.44514618  Gyration_radius:  2.69983534008 Dipole_moment: 6.288
 S          -2.10053175134834    0.27098555578210   -2.22758634292977
O          -0.87957810980937   -0.48780248068554   -2.03853605742022
O          -2.95498146304122   -0.13381807285571   -3.27436162500224
O          -2.87408886562993    0.29403590807943   -0.90248013533082
O          -1.68379076563106    1.77121152132062   -2.45056146301693
H          -0.86765384922225    1.96524531818340   -1.97085987051178
H          -2.27062948481368    0.60533396668032   -0.12855613749145
O          -0.43092924462187   -1.31505698228508    1.97221645594949
H          -1.07006730162787   -1.98304278643526    2.22045344868628
O           2.74705966675526    0.34473297464983    0.34879921300578
H           3.61694065650625    0.73809203292172    0.42711965002858
O           0.61604918256874    1.36279981699918   -0.96027401734415
H           1.48409049378384    1.10711799800833   -0.58658828704116
H           0.29043511615569    0.56434752841975   -1.42160631668885
O          -1.25229530580584    1.00924463768079    0.89909210957472
H          -0.48401099734898    1.24348099225111    0.32906402868155
H          -1.01878433885727    0.16522615445025    1.34513312929860
O           1.39208158238191    0.61002981308508    2.64888484215777
H           0.81478233837658   -0.17180539536822    2.63168793383523
H           2.32938782088342    0.41354440859241    1.23898791992041
H           0.80406045963107    1.36930681500717    2.62376136536348
N           0.81259241325705   -2.00468724769624   -0.22425108565649
H           0.20254376435959   -1.67427752812679   -0.96905918997108
H           1.66035624837696   -1.44655027989414   -0.24843140091166
H           0.05249033708726   -1.65531015297304    1.14862414126501
H           1.06447142761354   -2.96238452576188   -0.43067228844863
