    26
        -50.46004199  Gyration_radius:  2.46874617709 Dipole_moment: 6.454
 S          -2.05773594671866    0.41250396025498   -0.14817980976240
O          -0.66525388454171    0.70523662072655   -0.50476922917586
O          -2.76611024197025   -0.18365307128028   -1.25278588885833
O          -2.11997776820029   -0.35567143029305    1.08587627434682
O          -2.74049743685259    1.80747893040645    0.15185732804122
H          -2.21366646106896    2.16944072325107    0.87262777831314
H          -0.89053109535684   -1.23640882121409    1.21302573873742
O          -0.08471076186142   -1.84150230511785    1.26785052204044
H          -0.40449351277521   -2.64936680674249    1.67279992561580
O           2.78378296317104    0.38885438627162   -0.21275997747957
H           3.69347083270588    0.16652153661014   -0.00966981649802
O          -0.79710699659529   -0.64855933969210   -2.89496304099510
H          -0.58738991220838    0.25030807794953   -3.15928464984054
H          -1.61060415026750   -0.55266580849512   -2.33660881375247
O          -0.26823409807608    2.34322201425004    1.41432055977292
H          -0.32394958947301    1.72423691786055    0.63902654397013
H           0.20038715102506    3.11991571698080    1.10212679403747
O           1.50670492784687    0.33222872798084    2.08610028905995
H           2.31979588835058    0.46470440008442    0.66557624817005
H           0.87823810310136    1.07556205364216    2.08103776827148
H           0.96341899951834   -0.46197836668871    1.96808991711418
N           1.04969996426576   -1.42368426483590   -1.15205379072317
H           0.30991521765762   -1.05772076553934   -1.82966098565566
H           1.52200344122942   -2.23211759810803   -1.54345010713881
H           1.73202855382895   -0.65489062053391   -0.92313537490842
H           0.57081581327318   -1.66199486773509   -0.25299420272057
