    26
        -50.46409601  Gyration_radius:  2.47920491766 Dipole_moment: 10.011
 S          -1.70107964620623    0.14621527998345   -0.52220866033807
O          -0.63487984797483   -0.50881756163632   -1.29664565906828
O          -2.48819424418570    1.07086306787136   -1.27459466009987
O          -2.64980853603571   -1.00707017439358   -0.04200953795288
O          -1.11425421155165    0.72518000496912    0.69796960438909
H          -0.44801344504445   -0.09029825623106    1.81618972704895
H          -2.06955048005834   -1.71557094420388    0.30394012081291
O           0.06051877793946   -0.68558781330219    2.45052311733382
H           0.11179323239456   -0.20298085309405    3.27662176782474
O           2.88534255081428    1.13851063163729   -0.32794611286913
H           3.40103570410931    1.59608640038354    0.33723077408773
O          -0.48179517864077    1.81256759888954   -2.86403166750266
H          -0.18169223342957    0.89981540390733   -2.92098084203569
H          -1.36354609146342    1.74073129866502   -2.45524525814454
O          -1.09399719410868   -2.79436229238610    1.21644653639044
H          -0.69963596232072   -2.15947115054308    1.84267692102492
H          -1.71014831477046   -3.33564386354592    1.71374266103939
O           0.63988246370812    2.41350444343208   -0.49917701065729
H           2.06277985336571    1.69917747807636   -0.46630567560812
H           0.31678243367967    2.39251904684796   -1.42619993202177
H          -0.02684999643485    1.92007101152761    0.00978996171481
N           1.45828637766573   -1.03207665467970    0.09572051622528
H           1.85942310806890   -1.92891685000469   -0.15500215361714
H           1.14980886049662   -1.02167055109795    1.07951942831019
H           2.13590624643538   -0.23235913957148   -0.07301668156891
H           0.58188580352880   -0.84041557149804   -0.51700731473731
