    26
        -50.46706320  Gyration_radius:  2.48504015911 Dipole_moment: 3.566
 S          -1.48886628502710    1.08643604991241    1.21880842090235
O          -0.57200062020717    0.37711482800223    2.09810129436075
O          -2.87351539656471    0.83085489386341    1.47093418073837
O          -1.23463109794046    2.64650368374220    1.50311738365934
O          -1.09285407234817    0.95524859025056   -0.18539343009383
H           0.37776639041684    1.63101500438117   -0.27419389701541
H          -1.79535388854667    2.83854609943749    2.24873660431604
O           1.31309498316099    1.93976426141097   -0.35664899567939
H           1.31708440748671    2.83720040076733   -0.02107079162082
O           0.63830633188179   -2.63616695493826   -0.00873690924106
H          -0.18172469351152   -2.68518512125417    0.50457175498961
O          -1.76020313228065   -1.71251851326767    0.96326384388088
H          -1.30686628839661   -1.04622382598038    1.50704381818086
H          -2.67935111079414   -1.43571287017615    0.98021869334185
O           1.99106966935120    0.40335132051060   -2.47610197181329
H           2.78164748610443   -0.05032562973893   -2.17562533404763
H           1.81957019950892    1.11032203894359   -1.82320665966662
O           1.75385245610564   -0.45711479359372    1.07450725929904
H           1.92063973549688    0.33375239057799    0.54502199399451
H           0.97603097993478   -0.21138439181835    1.61212578672712
H           1.19160338996447   -1.96559694961065    0.45502076089230
N          -0.23107985123879   -0.96655398208588   -1.80005237495905
H           0.11705278402900   -1.75583786744132   -1.14818161056407
H          -0.70279890804371   -0.26384978401296   -1.18071527681546
H           0.59781492805298   -0.49282975963200   -2.23011753884652
H          -0.87628839660030   -1.31080912824451   -2.50142698492450
