    26
        -50.45494033  Gyration_radius:  2.74363543842 Dipole_moment: 4.799
 S          -2.12857155231607    1.93573503875812    0.33655893577109
O          -0.81055805553498    2.52451636093179    0.17523068778187
O          -2.52919298467572    1.11095937656952   -0.79479172105911
O          -2.25716167838043    1.23044876551974    1.60383362380026
O          -3.15205089740491    3.14912102586414    0.37851246389844
H          -2.72351855325690    3.75239319296613    0.97798358869706
H          -1.54564003208343   -0.15780485538942    1.78334101741730
O          -1.12427766133705   -1.06426648513281    1.80561498447740
H          -1.69556134977184   -1.59948094852967    2.35779229458729
O           1.24480263828528    1.04338262735530   -0.44287549805961
H           0.57140518932819    1.72967780468319   -0.21923718188056
O           1.58480315847160   -2.45028996642258   -0.64003556445838
H           1.98606220580805   -1.81100011137828   -1.26640590660812
H           2.15064455134331   -3.22274908169436   -0.64172354350933
O           2.62985352086784   -0.48788315793655   -2.18563567472254
H           2.18902902779766    0.23711929732069   -1.70408362595398
H           3.56547243133650   -0.28070079207012   -2.17822627693243
O           1.62415094662687   -0.69641286797574    1.53892992693734
H           0.73384552218366   -0.76075981835150    1.91363152185595
H           1.68091146357539   -1.42750692241278    0.89999636683517
H           1.51887837892100    0.63093013368044    0.40876617449093
N          -0.70514282427097   -0.70658842685492   -0.84512422288998
H          -0.62594055377529   -1.41537880284459   -1.56677168536280
H          -0.81191403339788   -1.13671744463710    0.09411413418946
H           0.15821542953325   -0.08886457742748   -0.81801874525178
H          -1.52854428788092   -0.03787937456129   -0.97137607404113
