    26
        -50.47087245  Gyration_radius:  2.40456802654 Dipole_moment: 5.176
 S          -0.15740115962269    0.95742340836162    1.03137887911349
O          -1.13041742129685    0.15128576295181    0.26987097785352
O           0.04852204960201    2.24481658580569    0.40082377313228
O          -0.76209652603836    1.19306219339783    2.43330131829970
O           1.09052810324277    0.21066422401531    1.18292142253141
H           2.19695200943802    0.79307843485474   -0.08357020087561
H          -1.01570272318607    0.28313139798577    2.74748990266010
O          -1.22588784897264   -1.25635484157072    3.18278072739716
H          -0.86597018330551   -1.38489430662983    4.06315195656956
O           2.22515082423858    1.41521444554485   -0.83677195080708
H           1.59376688770081    2.09097572209986   -0.52271049271434
O          -0.36401635233244   -1.82558924945831   -1.17323194247469
H          -0.65866802769805   -1.11207795104338   -0.53743074387180
H          -1.17082753453113   -2.25317043256554   -1.46672451472346
O          -1.43639978272020    1.68758287505059   -1.81678112538629
H          -1.08603338233656    2.48411785989461   -1.39912898050266
H          -1.55363948407909    1.08683419848574   -1.04353654502868
O           0.55808038817270   -2.33301121729360    1.54735987223182
H           0.91027240721892   -1.42086253298087    1.44987368719688
H          -0.64267302049325   -1.77451080675561    2.57335049430510
H           0.30296289679028   -2.58959357895995    0.65447918987358
N           0.64071465031846    0.25841532494189   -2.56634711493520
H           0.93811978669493    0.19121602432129   -3.53329887288727
H           0.38139147640364   -0.67486028425550   -2.17114950012176
H           1.40096894698741    0.69357826791314   -1.94099030569384
H          -0.21769700022839    0.88352849598746   -2.44510991111749
