    26
        -50.44898629  Gyration_radius:  2.5143627084 Dipole_moment: 5.472
 S          -0.98643080823709   -1.96726380515295   -0.77883263918360
O           0.31374900310363   -1.41961429983334   -0.42586916802058
O          -0.98940021652442   -2.89993766316152   -1.84234615536021
O          -1.58819344321813   -2.58654805874262    0.49595564875959
O          -1.92889730388424   -0.80244304408474   -1.13117723675195
H          -1.77750082630959    0.00778820182438   -0.52130643439366
H          -1.47015911666644   -1.91496490504905    1.24930807267981
O          -1.53796418529850    1.21052820547270    0.34225708192454
H          -2.26426329305861    1.81929713830539    0.20069155812733
O           1.56601738943696   -0.78805848781107    1.78225303753469
H           1.17300370939809   -1.00999839057123    0.90687238347409
O          -1.15560312856715   -0.73483185338353    2.20963362594540
H          -0.18939499966782   -0.74445478956373    2.32273939398530
H          -1.34562018376296    0.06858391687972    1.69186480360350
O           2.40133313019449    1.75995414613450    1.12120576189589
H           2.32936255910995    2.28360132394622    1.92042081075176
H           2.16413202376678    0.84815005126437    1.36936687475407
O           0.52060959657652   -0.21604593425998   -2.83157565891649
H           2.21496040911663   -1.47055963392564    1.96188976488246
H           0.62536956752961   -0.72618892687976   -2.01443997521472
H          -0.06315655619807   -0.73716147713172   -3.38561927719396
N           0.44515974889610    2.05210491130926   -0.97388237650262
H          -0.67941568866406    1.61075863260685   -0.19767590244872
H           0.40006155406908    2.98220604482780   -1.36882529208645
H           1.26629995309963    1.99343673555600   -0.36958751116072
H           0.55594112576637    1.38166194143017   -1.73332120108351
