    26
        -50.45711639  Gyration_radius:  2.72957359638 Dipole_moment: 5.114
 S           0.13681394295487   -2.67195781609142    0.08112826385128
O          -0.14941991898757   -2.21918433621002   -1.27148061007411
O           0.36760548450343   -4.06917002472406    0.24942871896964
O           1.57082945818150   -1.97652349632891    0.45025667630798
O          -0.79414241484685   -2.06646701433988    1.03430666279345
H          -2.11042929110865   -1.09077518069800    0.77420165940108
H           2.06835821486453   -2.77463627482132    0.59102843905111
O          -2.76203323410816   -0.38833769681188    0.54014787681831
H          -3.53995756110549   -0.84715464773105    0.22132553576298
O           1.32243599883232    0.73259619993533    0.93574406500576
H           1.70997080545967   -0.14300284608071    0.79129203711219
O           0.00466473132737    2.36758723532100   -2.62419170683902
H           0.72850854425598    2.62845972550142   -2.01736963915048
H          -0.48705383504189    3.16599441147173   -2.81956268463151
O           1.87841979917903    2.86700247365775   -0.72870667640294
H           1.72949433116959    2.20485168505189   -0.03176970003557
H           2.81263553266117    2.83164471823356   -0.93980346961032
O          -0.43623327064469   -0.05194884190262    2.73426807884102
H          -0.51347100712076   -0.90321325534958    2.25420434391024
H           0.75515244737992    0.61598052160392    1.73594088560066
H          -1.31448111349071    0.33479195412977    2.70156004270364
N          -0.60458997373750    0.30686655616305   -0.94872658834489
H          -0.53243327555526    0.96571985219663   -1.74489396278511
H          -0.40349174535401   -0.70241319728165   -1.22379814575306
H           0.10674328981016    0.57290564160448   -0.23261543020304
H          -1.54389595949597    0.31038367350786   -0.51191464229934
