    26
        -50.44749623  Gyration_radius:  2.60621933311 Dipole_moment: 6.785
 S          -1.99050065022999   -1.87694399386321    0.03354160471550
O          -2.76724521781501   -0.66031696665837   -0.16583651182509
O          -2.73920578910096   -3.03572134624960    0.39781952300678
O          -1.35732492395354   -2.21996047526931   -1.41672444907687
O          -0.81760609707644   -1.59406106357700    0.86582425381688
H          -2.13726154563447    0.63193570819046   -0.72591035605573
H          -1.81736463867941   -3.02735066837216   -1.61939700916901
O          -1.71019885859834    1.52564403629953   -0.89745906312929
H          -2.41225090624129    2.09179188993565   -1.22026271160688
O           1.97976381128879    1.91687931859980    0.71382938523036
H           2.37243441862126    2.78960455745157    0.71753931801347
O           2.55396643402521   -0.71646611765343    1.34041390732663
H           3.44184282532793   -1.02624642249134    1.15638737664141
H           2.54717095284631    0.23810477525923    1.16777915692729
O           1.29246942747231   -1.25758094762191   -1.08270483538213
H           0.41003920740077   -1.64788127135757   -1.08396329231914
H           1.58650027546167   -1.26669971722238   -0.15447586172107
O           1.00666299554750    1.32598720016335   -1.59605966614550
H           1.67597314006564    1.74264838200834   -0.23405291087068
H           1.16342894631994    0.35026716151765   -1.56699648535328
H           0.04506766869261    1.43171835835672   -1.54714223986932
N          -0.45860893533929    0.87653704939236    1.40457004902486
H          -0.99254172364557    1.33725586363575    0.63878382200135
H          -0.86192536755493    1.07690389321440    2.31299449994766
H          -0.54102885079885   -0.19748068059239    1.20787184535360
H           0.52774341159340    1.19143147687882    1.35363066051037
