    26
        -50.45099266  Gyration_radius:  2.71358816054 Dipole_moment: 4.629
 S           1.12118755963932    1.48765833758499    2.00727045768085
O           2.37982681645265    0.90866144003441    1.52867220638900
O           0.28476971176419    1.97002066752933    0.93873591826746
O           0.43832302749571    0.56786107917668    2.90980545544713
O           1.53259927517684    2.74658757774024    2.88486554058013
H           2.09252191044701    2.36363036907421    3.55385012071093
H          -0.07134781714980   -0.60610293209529    2.04837971681640
O          -2.07795650229015    0.06925541620622   -2.05736704874742
H          -2.84185278873901    0.56036356069566   -2.36212205824514
O          -0.30087010120481   -1.41170997524640    1.49122708763799
H          -0.20929123441769   -2.15813606806833    2.08666534731014
O           0.20951094167794   -1.50045586274991   -2.72048033629485
H           0.56447066076466   -1.02245502907410   -3.47184259547446
H          -0.64518856633806   -1.08687605117420   -2.53627984330465
O           0.29013442522551    1.41438454393873   -1.64921212501789
H           0.24933594993271    1.84367913964612   -0.76972692062319
H          -0.60827252176184    1.08140557961599   -1.82502676596452
O          -2.68888833948027   -1.11872834612553    0.24355105034820
H          -2.92505657829728   -2.03911960385161    0.11414290302186
H          -1.86084066605308   -1.11689313266321    0.76509625764138
H          -2.32692188070582   -0.31388754833944   -1.18310321835931
N           1.49790969743978   -0.55282513162555   -0.41143206142494
H           2.07515553907395   -1.19301740786044   -0.94689550089495
H           0.75856435097828   -1.06719329546424    0.09489069046340
H           2.02624800506952    0.00662042864150    0.32629643735657
H           1.03592912529768    0.16727225445883   -1.05996072532935
