    26
        -50.45899134  Gyration_radius:  2.54236271398 Dipole_moment: 5.821
 S           1.56508016782522   -1.79823016276514    0.74788896056524
O           2.27419792783807   -0.72093756192860    1.44626420768632
O           0.41835426529703   -2.28436004455743    1.46139218683462
O           1.25938474611160   -1.38098851796827   -0.62225865700327
O           2.60959981935833   -2.98380496284499    0.64253085884528
H           3.44031027487074   -2.53345481023675    0.52362700618010
H           1.38498614214985    0.16204930214580   -1.09195403064815
O          -1.35410350544348   -1.21985763728049   -1.49328381597873
H          -0.41755211548460   -1.44582569229352   -1.37030837622081
O           1.40472881974899    1.13950903574356   -1.26686671273373
H           2.24308151211654    1.32139238587822   -1.69179486270958
O          -1.59126473918451   -0.63660348381126    1.02125687072002
H          -1.65803202637834   -0.88718763740838    0.05162358369439
H          -1.05405257784359   -1.37087401647561    1.38182824416557
O          -2.38471255439428    1.96101982018101    0.40203820051960
H          -2.39456001056381    1.04436353943781    0.71719218542352
H          -3.29923470251028    2.20857339834093    0.25831275875193
O          -1.23358462583021    1.41922919716155   -2.10388279351365
H          -1.37349061486146   -0.33781007485715   -1.92033123597071
H          -1.63333355863226    1.75382358082521   -1.28444894456143
H          -0.27519642465424    1.47576394713158   -1.97995260226831
N           0.40901139415345    1.05269210623823    1.25071826443561
H           0.26740477553350    1.78159245414429    1.94220280084628
H           1.21677080669392    0.39494654509094    1.49189667037205
H          -0.46800916038722    0.43497983961707    1.15924154264633
H           0.64421597451237    1.44999946049949    0.32706767988977
