    26
        -50.46437754  Gyration_radius:  2.53000834007 Dipole_moment: 8.920
 S           1.30813971678427    1.52507151099195   -0.32442505919042
O           0.11321632298075    1.52752081209338    0.52745702401346
O           1.91866804259015    2.81762595553361   -0.43934205296359
O           2.32976293828556    0.53555459579320    0.38028595950914
O           1.02437363465673    0.86353358074308   -1.59849006409304
H           1.00013666680485   -0.68183003077283   -1.25059659133878
H           2.55632405218403    1.00940207391484    1.20370315353338
O          -1.58567474652554    1.13671825840358   -1.47176953605121
H          -0.70712681986148    1.14870351398041   -1.89955349510834
O           0.88104603427249   -1.64816347081804   -1.03700562282059
H           1.72190172021508   -2.05829742858763   -1.24263017474027
O          -2.44372607044936   -1.89577921710547    1.24188129540673
H          -2.49114124821875   -2.71336207453722    1.73856304309063
H          -1.58392694535689   -1.46234471942814    1.50110285336449
O           2.25850751644952    2.47917421136895    2.17335423555216
H           2.26875676719788    2.94020996560576    1.31460346777674
H           1.32821741707900    2.41179520022380    2.40774080428190
O          -0.04923876467615   -0.90049942489796    1.54219240251491
H          -0.03075704407236    0.04834802133643    1.29155818215354
H          -1.35209098056929    1.42561327598720   -0.56941232731181
H           0.48822022800496   -1.33251961995194    0.86364901296600
N          -1.80569836004218   -1.45862651462564   -1.28732228834547
H          -2.32709750982553   -1.89781877371325   -2.03766410376500
H          -0.80260379529092   -1.72773097639740   -1.30999509921793
H          -1.82518593612038   -0.38121336163139   -1.37948281643054
H          -2.19300281599075   -1.71108535174616   -0.33840218239382
