    26
        -50.46109609  Gyration_radius:  2.57336814938 Dipole_moment: 2.870
 S          -2.08463633572468   -0.65625937306596   -0.02656068951978
O          -1.63747004957122    0.48918147200988    0.74053870601003
O          -2.03556178787499   -0.42581535951742   -1.46583501737942
O          -1.39837961981189   -1.88331613855989    0.33622887436878
O          -3.61066053599709   -0.86029850286839    0.34653487102230
H          -3.85394417352509   -1.62125074389947   -0.17125734432907
H           0.17022899293667   -2.03224663841170    0.07592323035001
O           1.13215952097647   -2.07010313720835   -0.17500957977836
H           1.39474725793649   -2.98472080154211   -0.06267951139260
O           0.68197221856731    1.77435349340557    0.22071523898348
H          -0.23391586201054    1.58402435094766    0.49343975959808
O          -0.50143528959364   -0.28297955286979    3.02879763316243
H          -0.80369021486949    0.36393736366284    3.66838534405557
H          -0.99517204537838   -0.10102209488522    2.20373351585751
O           1.73402486888683    2.46599235942226   -2.37533540281674
H           1.47549839222340    2.56148331262632   -1.44834186349975
H           2.11714644177903    3.30307386351057   -2.63873931791387
O           1.84235251806290   -0.07591205846967    1.67777535739766
H           1.11902685896776   -0.20268430202913    2.32289251809000
H           1.77193799207020   -0.83259992649664    1.07542418042174
H           1.24096684477994    1.22276180131709    0.83199557532360
N           0.50591372106311    0.03842663245155   -1.76322184281154
H           0.89231892428592    0.41878000090654   -2.62499756315446
H           0.64085278580144    0.77465494667453   -1.00030573875139
H          -0.53826694809353   -0.14023373910687   -1.81424643449981
H           0.97398552422191   -0.82722721806743   -1.45585451883717
