    26
        -50.45960419  Gyration_radius:  2.54512543462 Dipole_moment: 5.076
 S           0.07498160128939   -2.23792336219121   -0.01977788753721
O           1.33429553356448   -2.09311395923311   -0.73201421419138
O           0.00032467823313   -1.37824392679097    1.14511620203463
O          -1.06605015999473   -2.11278872216618   -0.90993591803841
O           0.02447878610187   -3.72457647443469    0.54402161302080
H          -0.19676914474502   -4.24745690221399   -0.22053531977701
H          -0.68667760075609   -0.74783764136377   -1.54691988726399
O          -0.38721222035537    0.10440443130637   -1.97534955389909
H          -0.21034222243939   -0.12918486119915   -2.88864246454212
O          -0.05940169466989    3.02789906990634    0.72653877091110
H          -0.20383359185026    3.94885809897320    0.50688767530597
O          -2.33465110046044   -0.21601514222914    1.61669306429727
H          -2.23184937133174    0.07203940171557    2.52551817738439
H          -1.52577021721115   -0.72941298341136    1.40640261781900
O           2.52841899533008   -0.56628357157175    0.97501651356634
H           1.79532448650062   -0.70356617493795    1.59299798594956
H           2.33023629388201   -1.24599366100008    0.28714612037712
O          -2.04405883334250    1.67095789790018   -0.26238076884663
H          -0.88157739106078    2.54064386231789    0.42523443342114
H          -1.66352122842733    1.15761181441458   -0.98701861502067
H          -2.29686248142859    1.00381101811761    0.41369687053603
N           1.55312194930248    1.33648938364496   -0.53406218975823
H           2.25882263667495    1.76883445853685   -1.12044194011525
H           0.85955554286077    0.81183296958884   -1.11873353355854
H           2.00973998034085    0.62642492707457    0.13470870624700
H           1.01927679398237    2.06259004925819    0.01583354167109
