    26
        -50.44596038  Gyration_radius:  2.52177511808 Dipole_moment: 3.868
 S          -1.93261296101784   -0.10479606999251   -1.54655239415140
O          -2.26873755214137    0.83904936693670   -0.50400855911625
O          -2.74398150220313   -0.10182229919126   -2.70412429708997
O          -0.43638751256088    0.13320558709317   -1.91244116317825
O          -1.91206234552821   -1.53319433060779   -0.95260812407339
H          -1.15152638016682   -1.62316837328303   -0.30799547694043
H          -0.10015919086692    0.87299447694261   -1.30236320984386
O           0.15832045935642   -1.84397968335333    0.55908603994981
H           0.20434379707211   -2.75646202483956    0.84861942358575
O           0.17455159688532    1.97252826880315   -0.26345709729568
H          -0.74425946170557    2.26155750751198   -0.22140261649108
O          -2.20794392425447    0.69290037611828    2.16846935420286
H          -2.96225232215209    1.16361062408936    2.52419236436092
H          -2.31418530308251    0.69913051275886    1.19652074820837
O           2.88152046713187    1.00391276320175    0.33697038249329
H           2.40087059306754    0.86389176830205    1.16116432732772
H           2.41599641428097    1.71385203504578   -0.11529479760975
O           0.46764005483506    0.51283290872092    1.91422366833807
H          -0.42068522657583    0.66042140527196    2.28488626479660
H           0.42212393120965   -0.39039269002620    1.55397850175977
H           0.32516522290846    1.47011690468767    0.58503028670845
N           2.03615238460463   -1.32056079294518   -1.12461332152805
H           1.53071273153202   -0.94909229610114   -1.92083633781463
H           2.53771112102489   -0.54464908297160   -0.68567190363357
H           0.92689579853514   -1.69579617710388   -0.11802041202514
H           2.71278908981239   -1.99609068507146   -1.45375164094047
