    26
        -50.45208465  Gyration_radius:  2.43237489627 Dipole_moment: 9.809
 S          -1.24264291523100    0.65533508263332   -1.72928861542217
O          -0.50877350727287    0.06553664403652   -2.82211270300586
O          -2.60150887457011    1.04201430198749   -1.94684591032685
O          -1.30517253943779   -0.50499926211683   -0.60335734019643
O          -0.46825567568687    1.72467288941858   -1.05286653028683
H           0.71419473291744    1.54695642544604   -0.13844865912963
H          -0.55991563160413   -1.07300961279855   -0.86682405586031
O           0.89813519704412   -1.72087280926690   -1.48382941891802
H           0.53952024274663   -1.18342171706053   -2.22422747574130
O           1.41365704105315    1.47327450853580    0.59742961173208
H           1.74172123195185    2.36726349209049    0.70853209313053
O           0.10224507871468   -2.36710227733561    1.09904079869817
H          -0.65891449644374   -2.92926692665562    0.94038383845079
H           0.53613336674885   -2.26803250885871    0.23097532252512
O          -2.31932469792467    1.60586232149542    0.76409817157777
H          -1.65888375287264    1.88206943105899    0.08685502599708
H          -3.01002309956647    1.22462239549988    0.20934522169793
O           3.04976602134007   -0.44921314133004   -0.44316058470241
H           1.75814416475564   -1.30595733538236   -1.26671652856221
H           2.54122271180177    0.30380334226192   -0.08758037843564
H           3.47591361866677   -0.87781398257663    0.30056977338172
N          -0.49083910741700    0.14731894624924    1.97414534018753
H          -1.34639215018941    0.60490853965012    1.51133780243534
H          -0.55661160970533    0.18390337342270    2.98603770821299
H          -0.37426115538083   -0.83837323851888    1.63406154982818
H           0.33086578554363    0.69052110810440    1.62244594273511
