    26
        -50.46043711  Gyration_radius:  2.5896655761 Dipole_moment: 6.569
 S          -0.28552630683683    1.00584207799655   -1.40494103017632
O           0.63614762562333    0.07013483117238   -2.07362213699969
O          -1.37085642673273    0.31677771302853   -0.76410347293178
O           0.47256774871803    1.85747585464718   -0.48390998284638
O          -0.88484337640502    1.93226786407245   -2.51355633391297
H          -0.09742040024249    2.36663292108386   -2.89363254516956
H           0.96001538340345    1.04349848259448    0.78251834311301
O          -0.76458714073519   -2.90226320114937    0.96179470155244
H          -0.63468784626819   -3.67033831125433    1.51999703282459
O           1.34548381134424    0.46172857525648    1.49601666300541
H           1.90438409907462    1.03266398384865    2.02602458328742
O          -2.79607917116586    0.66797875713517    1.43609672682193
H          -3.63215965779597    0.24744446912787    1.22778116094038
H          -2.27937063411488    0.64670607988024    0.60271173474811
O           1.69833365295861    2.48667826157224   -2.80482165941920
H           1.57785872466166    2.60187718125476   -1.84998104536883
H           1.76254928635095    1.53035837725397   -2.92572645654914
O          -0.90945728868043   -0.85935801818155    2.56607132798811
H          -1.66895093315313   -0.30112246000410    2.28828098260711
H          -0.93989499955822   -2.13597927753718    1.58299837826854
H          -0.12712445083832   -0.34218003379937    2.32279511592818
N           1.22325595618501   -1.63398246547166   -0.22216667811142
H           0.92862773835539   -1.02816680713399   -1.05984304649533
H           2.01022548491344   -2.22447894597857   -0.47024702418063
H           1.47119590880950   -0.96029955473371    0.52753106853105
H           0.40031323212873   -2.20989636467538    0.12593359254322
