    26
        -50.44399037  Gyration_radius:  2.53877865135 Dipole_moment: 11.224
 S          -1.43038591809355    0.78026532738017   -1.65247798185183
O          -1.60232225522560    1.19463133222917   -0.25302619908774
O          -1.91240500747994    1.71973029925351   -2.60597322811568
O           0.19171358099330    0.70115726182729   -1.81426720643095
O          -1.82969361270656   -0.60338597323572   -1.85042355491317
H          -1.64525712831233   -1.97198737649518   -1.08636570200579
H           0.43641615297956    1.59553941404604   -1.44333726392895
O          -1.26860125475647   -2.84197779519121   -0.76756012822337
H          -1.49638908708497   -3.47515960372129   -1.45062265399977
O           1.22802761783590   -0.73403667895483    1.90958194970192
H           1.37614277572750   -1.31422852191879    2.65786527950556
O           0.43696505712083    2.86908146077066   -0.47849712404446
H          -0.48223851948887    2.63220964434286   -0.26432970674012
H           0.95211701343842    2.67447836734110    0.32634184659678
O           1.90542133202750    1.95360429870054    1.67922385039168
H           2.85573003727653    2.03875933034069    1.59343975754596
H           1.70921972957418    1.00964993254023    1.79952925075675
O          -1.29699206682555   -0.35287239415976    1.74813627936332
H          -1.45467439105603    0.18614674081767    0.91696904170668
H          -1.74851553137922    0.13036987716343    2.44193267820799
H           0.23042648737841   -0.55746265677607    1.89240850910145
N           0.99635722134794   -1.54040220647905   -0.66129605953915
H           0.69387956801018   -0.65304843619794   -1.15498783591907
H           1.21136397893609   -1.29965131517912    0.33179443584083
H           0.14671172316725   -2.19154504665348   -0.68343059515618
H           1.79698250657843   -1.94986528179195   -1.13062762875412
