    26
        -50.45862788  Gyration_radius:  2.48012809844 Dipole_moment: 3.033
 S          -0.98202969656052    1.98850390706751   -0.50623159241784
O          -1.58348432479863    1.64330107094928    0.77398846912471
O           0.40218271022126    1.56673991741878   -0.60508003306577
O          -1.79170267142190    1.53674205381930   -1.62725783110181
O          -0.96015498773503    3.56810778782149   -0.58479252089146
H          -1.87761039368584    3.79838291219807   -0.69450870175206
H          -1.65618892000450    0.03444007622712   -1.95096485989751
O           0.62774189366992   -1.21906217367756    2.16388058448424
H           0.45647830472472   -1.46569718361471    3.07398944664771
O           1.05039106971559   -0.54805252662666   -2.03556939095556
H           0.98397955476057    0.32696809066725   -1.59129849030034
O          -1.60435464699580   -1.01640706525573    0.62086131802702
H          -1.75036290363263   -0.05750911977011    0.75457131336213
H          -0.80502644498826   -1.23159642365963    1.14300083285544
O          -1.36997051234722   -0.94027746338060   -1.90100618780297
H          -0.25491124481122   -0.86198448176408   -2.05151776267513
H          -1.49982156395146   -1.14794209186634   -0.90233699559817
O           0.74134999199268    1.40227692112037    2.03732596283676
H           1.08276796277284    1.55869680016866    1.14344332994443
H          -0.20806266915633    1.58596601230012    1.92287497928132
H           0.75314521938287   -0.23036724325326    2.16596551376079
N           2.09450221479384   -2.13221342735284   -0.20222454298710
H           1.63629927613711   -1.87935415957646    0.67067658314722
H           1.49500822055687   -1.16496713749660   -1.37130039570662
H           3.08991707347949   -1.99759491371422   -0.07985179720029
H           1.92991748791440   -3.11710013876109   -0.36663722114537
