    26
        -50.45312465  Gyration_radius:  2.4954996345 Dipole_moment: 6.898
 S          -1.49135808424978   -1.44579656914125    0.58643847656893
O          -0.22572714821116   -1.99051822593847    1.13471840061151
O          -2.65813336753696   -2.04921558625755    1.12090078268190
O          -1.44211266524424    0.02278196296698    0.69059369123706
O          -1.43487245135229   -1.75859693949086   -0.95899168349489
H          -0.76218345045023   -1.16512884038036   -1.34870949395263
H          -0.41741646010654    0.79627876310994    1.59613053169307
O           0.33443901478609   -0.00068118828682   -1.99658415886687
H           0.43470711731597   -0.06803003340084   -2.94644834826469
O           0.31232985631850    1.28065286819146    2.08082109369629
H           0.12492076913179    1.16688397380357    3.01310533303606
O           0.29742264162423    3.40065105006196    0.35397124910714
H          -0.13820091243906    4.16690309630137    0.72976039417844
H           0.34820487256610    2.73049426122016    1.06003819789825
O           1.29210990867765   -3.00695292170861   -0.89409430308021
H           0.77102297831984   -3.47734801108824   -1.54606788109411
H           0.70840244677047   -2.89755829081121   -0.12539697768092
O          -1.27273298217512    1.84016404776862   -1.25213582632293
H          -0.72450387902131    2.51383904154085   -0.80484740703585
H          -0.28076550652236    0.78370781136662   -1.81319350893468
H          -1.58811556415973    1.25145160969634   -0.53752210568530
N           1.59976103059905   -0.39802074230832    0.36772569704381
H           0.85167144795654   -1.11349626210782    0.74578191516179
H           1.52429124278849    0.43382384312622    0.96910455221734
H           2.51899964355762   -0.82787097347162    0.38311780705416
H           1.31783949104375   -0.18841772476009   -0.60821642776520
