    26
        -50.45971334  Gyration_radius:  2.45381540895 Dipole_moment: 7.639
 S          -1.00676742158047    0.21795568013715   -2.16918213499303
O           0.35398269912043   -0.29534901303174   -2.42320810333720
O          -1.98866177109779   -0.24502278825507   -3.08796042515282
O          -1.35901538645767   -0.08627001754842   -0.75666796629471
O          -0.91583596408524    1.77097608794565   -2.24673503048897
H          -0.20762761022989    2.00073455523156   -1.60191423475523
H          -1.15246819050657   -1.40904980340536    0.03592011852874
O          -0.89571159816460   -2.21720095275590    0.57026098873246
H          -1.59293445305835   -2.85820055791697    0.42761823065380
O           2.10723388265675    0.29853871077234    1.21661162740532
H           2.79036846972395    0.56346239242715    1.83303610247382
O          -1.54815365252572    1.65278735337547    1.14007812863651
H          -1.54951477743815    1.00951748752212    0.38133602387143
H          -2.38966330219531    2.10846272925498    1.10699646011671
O           0.73857207788873    2.27717078213322   -0.25479331614197
H           0.00491055355023    2.30873603785344    0.38190101963640
H           1.34390254914030    1.60044907661443    0.08482022472306
O          -0.10905419420142   -0.27659626319914    2.45929344002657
H          -0.44761414567513   -1.05349878964005    1.98828515091359
H          -0.68811038259578    0.45917380848152    2.19388471223938
H           1.28825651893491    0.10646763545784    1.76119120336747
N           1.47206973415911   -1.61298469695491   -0.59577599487478
H           0.69659907596139   -2.09353257889522   -0.10429738333450
H           2.14919503440176   -2.26667762384897   -0.97071826533813
H           0.99417732768077   -1.02449761323251   -1.42322560291077
H           1.91186492660394   -0.93555162852866    0.05324501630313
