    26
        -50.46228075  Gyration_radius:  2.54579795396 Dipole_moment: 6.938
 S           0.69979128192050    1.46404996188832    0.59237193965708
O          -0.16159499819995    1.14716621246262    1.71622042220401
O           1.52299984987741    0.33400765421637    0.18076796374012
O          -0.08080046649826    1.97629873288528   -0.53916779591510
O           1.69091697726731    2.58951433740511    1.02642751106572
H           1.08303463130145    3.30692205158488    1.28984282530906
H          -0.92735555728874    0.98273741459077   -1.42044990240263
O          -0.48591133743625   -2.93356019022748    0.40441448040715
H          -1.10444151306134   -3.66489771580190    0.39895420823044
O          -1.45221277957547    0.29740465743963   -1.92228687598274
H          -1.97178475370809    0.78319784008723   -2.56455913511462
O           2.42030041293995   -2.33701855597281    0.42597986807567
H           1.64649301954418   -2.69285125306759    0.87274792585626
H           2.39886457962307   -1.38459159400680    0.57963505738616
O          -0.62890249787783    3.80200890570825    1.40690823239311
H          -0.76242060521854    3.50351295240373    0.49669015721418
H          -0.83397896582186    3.02777360328671    1.94909083100440
O          -1.80019497632354   -0.70125449237418    0.74977011855003
H          -1.00322438992409   -2.12859113284121    0.67883891422223
H          -1.24477615705129   -0.04333836186335    1.21955589376052
H          -1.93332314656183   -0.35040402173164   -0.14065783582459
N           0.58503725960080   -1.41198091876787   -1.51600453691994
H           1.04194756060606   -0.69237572424976   -0.86984424123566
H          -0.21106874899305   -0.92981142158528   -1.96984297114954
H           1.27449282107466   -1.77206253316422   -2.16733723845635
H           0.23811250977257   -2.17185642828704   -0.87806582607687
