    26
        -50.46983226  Gyration_radius:  2.43248781892 Dipole_moment: 4.300
 S          -1.81712776857472   -0.79576288880743    0.54635695491159
O          -1.82742576122928    0.45338305697592   -0.23236676005921
O          -1.46558813990671   -0.54459624296560    1.92781835022024
O          -3.31807177335218   -1.30172437554427    0.56578150771143
O          -1.03965863567238   -1.81831268071236   -0.10611780922938
H           0.54081609625601   -2.66299489210445    1.38034815210046
H          -3.66997451438407   -0.84564929851145    1.32300781731229
O           0.78701392490044   -2.00071991457649    2.03184986999146
H          -0.02580668334023   -1.47702846054742    2.16035061003796
O           1.56511947452404    2.49487256302720   -0.93132956684895
H           1.04112213453603    2.58102382510646   -0.11977037323197
O          -0.00638896969228    1.70960883255207    1.20008777322159
H          -0.75000371563447    1.31691431535750    0.69473364671115
H          -0.18789618269216    1.46956417646030    2.11283105802621
O           1.12902020971117   -1.37535097410591   -1.59763605812892
H           0.35385512969711   -1.76413316174265   -1.14613669831058
H           1.65544940443721   -0.98150419683364   -0.86289933254126
O           2.00912720710041   -0.09457002762141    0.57565006980381
H           2.30342100617735    1.92232567461014   -0.69638446640835
H           1.35072135207620    0.57869060591386    0.82303155842080
H           1.81869387480447   -0.83566897315086    1.18725045312504
N          -0.09883764211134    0.81203913210284   -2.20062514139955
H           0.53067280922782    1.57728518857364   -1.84967192636553
H          -0.43849395432100    0.99919276925447   -3.13661277441389
H           0.45306615443882   -0.11963257017223   -2.13111890570771
H          -0.89282503701987    0.70274850745270   -1.51842799892567
