    26
        -50.46903837  Gyration_radius:  2.42963655894 Dipole_moment: 5.011
 S          -0.99409205716802    0.01780999213724    1.81203845694121
O          -0.38725134737208   -1.29622772859027    1.69505223922411
O          -0.08981977587509    1.07390426570071    2.17942150930009
O          -1.75997031803488    0.35034538531043    0.60126539895962
O          -2.05940690363454   -0.11887188152347    2.97622557811223
H          -2.26102740976447   -1.04820614230414    2.95405110442940
H          -0.76881897557178    1.57880428002702    0.01874698218280
O           0.14534242675134    1.12006196675418   -2.89415776218240
H           0.01192343478830    1.78920543297204   -2.20422290128983
O          -0.06675464677545    2.15383184334851   -0.35047817063218
H           0.25421214211867    2.64836071197966    0.40838284156336
O           2.24311193030347   -0.20577227655389    1.95399087581690
H           1.91856918260215   -1.09808985063661    2.10165413702620
H           1.48034303664602    0.36745065283605    2.15994988124005
O           0.62334548093809   -2.09955428572084   -0.63417363018864
H           0.28977164580806   -1.98132718900153    0.27997840928408
H           1.27464762725280   -1.36893069856675   -0.74469681555629
O           1.92898840871511    0.23463250748085   -0.67919969211680
H           2.30729185309711    0.10010601314950    0.21443050895785
H           1.04432126021840    0.79879508445793   -2.76120899708191
H           1.28231943419393    0.95164711740672   -0.55403892850888
N          -1.31266111071900   -0.80253953348431   -1.73376471828995
H          -1.64383606494243   -0.35090577766166   -0.84364404473021
H          -0.84401869740778   -0.06500851821718   -2.32221241305926
H          -0.54482259996048   -1.49369845686665   -1.40509045228754
H          -2.07170794610429   -1.25582291443365   -2.22829937716710
