    26
        -50.44679214  Gyration_radius:  2.50128849769 Dipole_moment: 6.297
 S           1.20761012899853   -0.32284063222430   -2.07218791144957
O          -0.20483316157106   -0.28817255578608   -2.37810074270065
O           2.10672860019624   -0.10146875314212   -3.14091636522010
O           1.44614621825198    0.71549689438430   -0.92420277279800
O           1.55905585278988   -1.64590140102161   -1.37374021170507
H           0.92361165831040   -1.83104076745746   -0.60851505130449
H           0.66987784013200    1.38070104409126   -0.98041742290492
O          -2.26758612842871    1.05883708379168    0.60578251584110
H          -3.16890915137139    1.38319260610197    0.62822428963886
O           0.03472508259160   -2.16721323862291    0.61559211427412
H           0.47534022378370   -2.88211163066595    1.07780170148919
O          -0.62801113419462    2.11133572089371   -1.22998883879428
H          -1.22574366013848    1.85515297985191   -0.48842100127977
H          -0.86235681011806    1.52790518707356   -1.96620454016917
O           2.50780492140112    1.09577405142038    1.60950870296664
H           2.29827359964092    0.91364689061427    0.68123762908142
H           3.02135186036146    1.90490956391532    1.61704055295508
O          -2.15345730990059   -1.17824073584862   -0.75660552049394
H          -2.29773248113232    0.18381702718679    0.12678852598241
H          -1.61688621069799   -1.78546402771298   -0.22884418324759
H          -1.56637965073544   -0.90974445843643   -1.48844143714024
N          -0.06022350087913   -0.14386097032045    2.21032814559917
H          -0.27098420212422   -0.33517388882624    3.18102755577590
H           0.01639564995547   -1.35841069499359    1.26736974760704
H          -0.77697837517383    0.47744985731307    1.84727280063202
H           0.83316016004252    0.34142483839243    2.16861170737149
