    26
        -50.45102355  Gyration_radius:  2.43898268269 Dipole_moment: 5.314
 S          -1.15912399085888    0.72934176943643   -0.92376641755347
O          -1.11829378842327    2.15257647870441   -0.71734105099133
O          -2.12866903206948    0.23711638259708   -1.84671759708585
O           0.23741920910131    0.24412463354196   -1.33156657266201
O          -1.41523430801363    0.05778017294927    0.45086104537847
H          -0.59719802539131   -0.41791077227152    0.81858705993386
H           0.92009119507852    1.00125957444835   -1.07917157060696
O           0.59850797625931   -1.17111284203445    1.41259458223222
H           0.25362883168314   -1.82616210098544    2.02266248851406
O           1.67740100645360    2.13584086017461   -0.60368209903196
H           0.99548640864887    2.81621059022086   -0.65330557729369
O          -1.58738644621193   -2.38231369043461   -1.62961446767859
H          -1.79360172609108   -1.43378925191225   -1.72290908189374
H          -2.24946409766222   -2.84421802984392   -2.14767339255336
O          -0.94384438504144    2.45626262279458    1.94606706820382
H          -1.07065177150340    2.49943677201732    0.97952096655747
H          -1.63126624809895    1.86971095398253    2.26765085590687
O           1.55975155376048    1.43299250631854    1.89654165263634
H           1.79148938744547    1.92720049132995    0.37078442675471
H           0.70658172504598    1.86950112720310    2.09888763475941
H           1.37727463278991    0.48377806069059    1.86203139747353
N           1.16886112094750   -2.45196997116756   -0.75395994044299
H           1.60962856832411   -1.77857873612784   -1.36831036139712
H           0.22226425900571   -2.59186274495136   -1.10719302394852
H           1.67222235661676   -3.32773490861053   -0.81546297187804
H           0.90412557819664   -1.68747994807757    0.57448494667722
