    26
        -50.45788899  Gyration_radius:  2.41152768788 Dipole_moment: 7.661
 S           1.52518419548297   -1.19661821121122    1.17879886742406
O           1.74814920696350   -0.35101246884674   -0.03281448488186
O           2.58566585621276   -1.07580507697055    2.12094631067431
O           0.19592684473546   -0.61424404256892    1.81762438372738
O           1.13084057626166   -2.53170768495740    0.76758544565141
H          -0.37935642450124   -2.35266197375753    0.43186367183285
H           0.30210512466788    0.34894305641992    1.98194283745790
O          -1.04169525720426    1.40442209436350   -1.90873149597285
H          -1.69604347642462    1.92951009656697   -2.37024146220403
O          -1.29213628296770   -2.20050643131211    0.04361389325472
H          -1.83416721193279   -2.92885033760568    0.34899222860457
O           0.12504811794304    2.00843603612020    1.96223315906367
H           0.68630331601613    2.40606429367059    2.62932739965967
H           0.53557738689765    2.23176792414104    1.08161687350705
O           1.21696945134277    2.23219089205379   -0.40422052234618
H           0.50840009399326    2.12363579505446   -1.05511119972120
H           1.61343157400210    1.34309890879271   -0.30267680167702
O          -1.99215843633670    0.54609233366333    0.36659358152271
H          -1.53411680017400    0.99935972525851    1.08401419212360
H          -1.45670080539349    1.13597807520753   -1.03989496797484
H          -1.75871459552720   -0.39453913782693    0.45222158277772
N           0.15321549017845   -1.02572201384857   -1.87182780309208
H           0.57776374867232   -1.51689228135147   -2.64952694579309
H          -0.28955042577232   -0.13405267973887   -2.15905446857675
H          -0.54257106638004   -1.61455211909647   -1.37562487541996
H           0.91262980944882   -0.77233478239647   -1.09764938952111
