    26
        -50.46116908  Gyration_radius:  2.61875414507 Dipole_moment: 2.767
 S           0.63397666131165   -2.22828279313778    0.51947815262117
O          -0.31256879133176   -2.55216165055271   -0.54078716649804
O           1.98627192785261   -2.02437496805155    0.07023726501067
O           0.15372775898660   -1.09616770180750    1.31771018193469
O           0.63008879673105   -3.49201942151301    1.47936853970199
H          -0.21843116997555   -3.88271195896290    1.29485204987129
H           1.27775300129115    0.07823301094608    1.35726515369185
O          -1.61948186895970    0.83741611605825    0.69435166585571
H          -1.16382006278571    0.09672278057145    1.13592260600460
O           1.92415790900229    0.82801750288908    1.31762307556195
H           2.69007137478679    0.53019150835834    1.81065384843384
O          -3.06856393308591    1.03529060351550   -1.76852113781870
H          -2.86491158004555    1.04130649711499   -0.82291805980762
H          -4.00264806179992    1.23097158203322   -1.84734657736364
O           2.07934234265195    0.21662709413913   -1.35371482627359
H           2.22167682625362   -0.69703610780715   -1.03022149502191
H           2.16924768570450    0.74323423942362   -0.54174988645577
O           0.08062421024098    2.83070245853239    1.36309246561871
H          -1.15246950705539    1.64150322087609    1.00197435194722
H           0.81695376011733    2.20118463098512    1.47528961908762
H           0.36687465061413    3.47277079969927    0.71180090657424
N          -0.52736769454926   -0.15226683537984   -1.55911394341001
H          -1.09401637363431    0.04370496262749   -2.38126511014963
H           0.49078245209932    0.11584749521358   -1.66192698481889
H          -0.95258891214026    0.35708119047974   -0.74256092186230
H          -0.54468138231960   -1.17578426627562   -1.29949377242726
