    26
        -50.45866438  Gyration_radius:  2.704923039 Dipole_moment: 5.338
 S          -1.89187751229576    1.64177223977245    0.86317093216561
O          -1.80668668217456    2.13581609047573   -0.50339518340751
O          -1.88152070703749    0.19554486900773    0.93674289156450
O          -0.89515296917107    2.27039151879044    1.71899904345552
O          -3.30397506096831    2.10199133883712    1.42544975183640
H          -3.22973797363320    3.05080853848592    1.41082235449578
H           0.46607389548623    1.79283734882553    1.17491927637501
O           1.34295279320200    1.45972675810151    0.81668824877774
H           1.97311673024817    2.16177239888946    0.98715516744439
O           1.00511944158857   -3.06422632398507    0.48391811442474
H           1.45102690186344   -3.63337184229715    1.11234194987496
O          -1.61132366490706   -0.13316653947856   -1.69249604456125
H          -1.84413192654069   -0.59896778274048   -0.87562593380762
H          -1.81354492929974    0.80323791941249   -1.44429319222804
O           2.19176595258841   -2.12337457921420   -1.65171170366342
H           1.89116751493329   -2.69396837613093   -2.36119703245031
H           1.81221474727411   -2.51301602468411   -0.82002891061138
O           0.32560558281461   -0.94937195743202    1.89415131488302
H           0.91884558055159   -0.20554822376192    1.73159434072267
H          -0.56285317156594   -0.61271440480423    1.66004566637596
H           0.68592708021634   -2.28556632904828    1.01019069941479
N           0.97039248907442    0.24522753982220   -1.58291984953933
H           1.13762107270941    0.71927015647679   -0.66724973773691
H          -0.08686551154218    0.03479328409708   -1.66175688911381
H           1.24606599071301    0.86202238902776   -2.33991386068789
H           1.50977434587552   -0.66192001644293   -1.62560140400304
