    26
        -50.46538222  Gyration_radius:  2.49577724691 Dipole_moment: 5.283
 S          -0.94947140756630    1.04988522980287   -1.40151136798767
O          -0.80967317952005    0.21211814543821   -2.58596344542900
O          -1.67027029009817    0.40360776277699   -0.32986049160548
O           0.34369996662121    1.58247787814810   -0.98374376916059
O          -1.82556584673239    2.29296253672706   -1.84004291684682
H          -1.43200313498930    2.58524290164942   -2.65672293869385
H           1.47739504605342    0.46623451168285   -0.69914976752015
O           0.43552026318536    0.84583032238340    3.23691320389878
H          -0.16878902652905    0.78612775699479    3.97763658693643
O           2.13199632702327   -0.26313851939085   -0.55227011651601
H           2.99451152439617    0.15456562246151   -0.53430819316970
O           1.01009517930680   -1.36284399559537    1.79517774424793
H           1.53255023351510   -0.98574739274107    1.07253265946790
H           0.82887147869308   -0.61361257371898    2.39970115487552
O          -1.10851084175218   -2.11422611709425    0.44143335708917
H          -1.53389934844853   -1.25006337284145    0.28691668430285
H          -0.38488608321251   -1.93009771963380    1.09840012414316
O          -0.80877790409292    2.29880405370870    1.35595382655588
H          -0.15450357510381    2.39940542357822    0.65075838323364
H          -1.42374881311012    1.64785144570620    0.98313931749961
H           0.00871838947095    1.44743557235201    2.58435465361034
N           0.31804824904426   -1.96047021890265   -1.68376463467296
H          -0.16609775955562   -1.15864826118894   -2.18041129183087
H           0.44098699936890   -2.76476119740596   -2.28842002691047
H           1.21933089156014   -1.59081929914147   -1.34574605884579
H          -0.30552732749940   -2.17812049569049   -0.80100266664951
