    26
        -50.46539900  Gyration_radius:  2.43468787885 Dipole_moment: 6.435
 S           2.05748892808417   -1.12929849349722    0.01518784811852
O           1.26975747930497   -1.23014890068888    1.24225038219515
O           1.81110555431466   -2.16161955808644   -0.94112218561843
O           1.91100321870044    0.21329948025453   -0.56678272811898
O           3.56951115015150   -1.23446187677532    0.48068853642253
H           3.59714246359404   -0.69218966068224    1.26322046960332
H           0.79322730846310   -0.21865900105731   -1.65843468151613
O          -2.52239728589758   -0.01026946091455    0.90780704636698
H          -3.37375158829131   -0.36561379095018    1.16383697856264
O           0.01967159680422   -0.48707005552898   -2.21274128339418
H           0.35837662460012   -1.20197670985045   -2.75638121672853
O          -0.14175279364855    0.79052972994713    2.30648428795418
H           0.41132228147511    0.02892936092391    2.03767651151880
H          -1.04900574361684    0.54038738351836    2.08677609680270
O           0.58236421191609    2.31224709162052    0.29473270810471
H           1.23538305135782    1.66606946987095   -0.05527391075018
H           0.34350329983821    1.93416847941922    1.18067443942445
O          -0.98427240667052   -1.88880604172270    0.02765284098098
H          -0.16295080311220   -1.84071132730438    0.55746294240773
H          -1.96550711092829   -0.79446796990135    0.61521393069124
H          -0.70049016813536   -1.66638109622800   -0.87194387192984
N          -1.44059966656364    1.49678210190521   -1.04587546857181
H          -0.58134821718268    1.94765582144776   -0.49884590272545
H          -2.02764153469358    1.01364400408931   -0.33264513970807
H          -1.96868604258628    2.19221466310659   -1.55998977108719
H          -1.04145380727033    0.78574635708321   -1.67962884900668
