    26
        -50.46539900  Gyration_radius:  2.43469894957 Dipole_moment: 6.434
 S           1.72492072702082   -1.56574089802757    0.28460503597546
O           1.16446114211080   -1.00928879848236    1.51449375351139
O           1.09010237110006   -2.75980848306114   -0.17598731089524
O           1.77969363038637   -0.52865764537583   -0.75666412075986
O           3.23371987545041   -1.90823711327283    0.63136013028611
H           3.52014561174711   -1.15397654920057    1.13759733248858
H           0.41892886211866   -0.99618582366740   -1.50371660073479
O          -0.48045268586565   -1.22149470945335   -1.84725465395720
H          -0.41049149435808   -2.14576644807070   -2.09671909823674
O          -2.26080569594197    0.99750343490617    1.04050001461349
H          -3.11125684876320    1.00101395254212    1.48019471944377
O           0.44756491136777    1.55925311059874    1.82640385802228
H           0.76138038810081    0.63202540819760    1.82898519812352
H          -0.51673464532740    1.50480063102012    1.79408039059426
O           1.12351008626090    2.01599097225804   -0.66790808045831
H           0.96729367294968    2.05456438593286    0.31136126251115
H           1.54447423199509    1.13640088611095   -0.79268445773623
O          -1.35790266305822   -1.41311303949574    0.83334242112287
H          -1.95228329421962    0.04075644758090    1.02983001271430
H          -1.19557776394877   -1.60832008494517   -0.10197208838857
H          -0.46595587519185   -1.40694886631225    1.23579858785458
N          -1.23425214932411    1.36344238161962   -1.42315976682096
H          -1.67716329823441    1.94861750329906   -2.12189414810114
H          -1.77829811390920    1.34202324746078   -0.53412646267796
H          -1.12125154677342    0.39484467251759   -1.76310836208217
H          -0.21376944568939    1.72630144531923   -1.16335757641493
