    26
        -50.44216200  Gyration_radius:  2.56393042126 Dipole_moment: 6.476
 S          -0.42985088776626   -2.16633254775195    0.46578494128383
O          -0.68539627563655   -2.28555255310027   -0.94890659237789
O          -0.36637226714770   -3.34710108733986    1.24278640265096
O           0.87682941970739   -1.32894969338775    0.62869021034523
O          -1.48408958836853   -1.20654352889983    1.08230938365854
H          -1.79367252579172   -0.60958647751989    0.30427214473907
H           1.38919696211977   -1.42863746022211   -0.25370780885674
O           1.82093694728096   -1.64008952516968   -1.68424562376594
H           1.02244998822120   -2.14120092521784   -1.90438300557247
O          -0.14786910339253    2.03623355450158   -0.92677301339214
H          -0.56784886263244    2.89700763813417   -0.90101094322291
O          -1.37937162079151    0.65265090399820    3.18928879318214
H          -1.46835365979782   -0.05832024733954    2.53768686169418
H          -1.83130044741424    0.35351069131887    3.97979116600891
O          -1.98297228195221    0.07439187453042   -1.02083273430436
H          -1.61596908221786   -0.68228314556747   -1.50253756334833
H          -1.32503930040378    0.80488421088480   -1.06976640742578
O           1.42499200452001    0.78464076592204   -2.75602261439634
H           0.84430038946378    1.27544944133894   -2.14437969132917
H           2.20516023264491    1.32440062610876   -2.89131788091053
H           1.73138393921064   -0.77543117222605   -2.14778941938343
N           0.80369646046817    1.51252561882775    1.43597923893889
H           1.59722144234675    2.01097402325671    1.81867730844535
H           1.06541897811267    0.53500202483280    1.33760092504785
H           0.05679932414702    1.53844196740249    2.12546677149144
H           0.23971980510079    1.86991503273544    0.00333917077768
