    26
        -50.44982584  Gyration_radius:  2.40891692128 Dipole_moment: 11.009
 S          -1.82900680835675   -0.36780738638607    0.01806998520639
O          -0.62192591235290   -0.80302792977152    0.69968193762892
O          -2.59780982035223    0.60663028294106    0.74060926671685
O          -1.23669957900430    0.42992881932312   -1.30113420431368
O          -2.54411671266491   -1.47331368323627   -0.57510482224429
H          -1.42747129668521   -2.62081758738743   -0.60860078642146
H          -0.82603786596320    1.24930500811894   -0.96843618128507
O          -0.68416420224329   -3.24494063557594   -0.83485761537929
H          -1.03969817367678   -3.83775310058222   -1.50014346846872
O           2.25541260649982    0.46242676949984    0.20947928074432
H           3.19009540794126    0.48339111068668    0.41864282821278
O          -0.82828159913531    2.21001754166776    1.96877889130988
H          -1.56276110955301    1.63895349525893    1.66285377827686
H          -0.48946144610770    2.63102158872255    1.17164978279107
O           0.48328085575408    2.37750879612864   -0.56680644578984
H           1.18895166774369    1.76021176220132   -0.28172853330490
H           0.86528910434158    2.97175497243806   -1.21432537874926
O           0.99960574759658    0.31474368107470    2.41316940551757
H           0.43851284868870    1.12209018438645    2.47083112380122
H           0.37315999120618   -0.33621842698006    2.04085644678820
H           1.77774003245076    0.39760716590604    1.12172896713651
N           0.85489162069234   -1.20406594324932   -1.43745318125531
H           1.37491323390152   -1.33625928291404   -2.29991107140235
H           1.44533408384223   -0.76632939898026   -0.69395143535342
H           0.03501797480722   -0.55558893116739   -1.55504839773085
H           0.40522931063846   -2.10946889212816   -1.09885014243557
