    26
        -50.45498073  Gyration_radius:  2.47728738578 Dipole_moment: 8.711
 S           0.38050012659151   -1.79562179341044   -1.65245673987753
O           1.36351534848868   -1.95589692050598   -0.55490206998333
O           0.06767815741951   -3.00313669795889   -2.33192501143115
O          -0.79832785925420   -1.08024005541535   -1.12174855327299
O           1.05565175906330   -0.79889016703198   -2.66227650319887
H           1.23202941733578   -0.00982643006049   -2.12117261972116
H          -1.53038540156558   -1.17077436267350    0.25408437342258
O           1.25966167291755    1.53023255653587   -1.26903878359185
H           1.64563873336337    2.18115368441569   -1.85728309633331
O          -1.89229312117759   -1.17791671406776    1.18837010328036
H          -2.63881756131790   -1.77769500030291    1.17550203708632
O          -1.66515736185679    1.61926083859551    1.20538214960948
H          -0.73071239800980    1.69639038922847    1.43776526942361
H          -1.89699517103502    0.68375546606756    1.31048960953624
O           1.20559092031496    1.56855425462058    1.39663533472552
H           1.28481803633708    1.55400278956827    0.41297268447911
H           1.84523239329099    2.20646360892917    1.71527396322935
O          -1.27728911305685    1.49913894955437   -1.47344258853750
H          -1.27907978812709    0.52003110706046   -1.51654087187024
H          -1.59379666288566    1.70809017821655   -0.56941095424338
H           0.24686558873577    1.60299466770429   -1.39132588748499
N           0.74623985857649   -1.11699015935219    1.72681169016644
H           1.21986632754215   -1.64286321987697    2.45161515037331
H           1.03634548436614   -1.50359059453321    0.70333364444740
H          -0.28274421394275   -1.22183364764450    1.78489357387428
H           0.99596482788646   -0.11479273766233    1.75839409589225
