    26
        -50.45796712  Gyration_radius:  2.49753721665 Dipole_moment: 7.075
 S          -1.13715367361837   -1.46743133896260   -0.80492024224568
O           0.23861543070364   -1.79681453949414   -0.39071222249274
O          -1.78343218587418   -2.46569192021949   -1.57927727062621
O          -1.91618116808108   -1.29232348610860    0.57201394298017
O          -1.15628453420960   -0.12581184432180   -1.41461255239778
H          -1.01570310665172    1.17649976734637   -0.61016939315870
H          -1.22396674829230   -1.18346343474097    1.25138804583975
O          -0.76761537725014    1.97539144209995   -0.05039029847034
H          -0.73149543513750    2.71794091499942   -0.65499540067359
O          -0.30725206379975   -0.52660798528867    2.63363823164302
H          -0.53421651173887   -1.07519864799978    3.38584033145418
O           1.10458791878233   -0.66238115654881   -2.72425999536863
H           0.22810581702284   -0.30596220675975   -2.48941097750288
H           1.12947243549833   -1.50132961796879   -2.24865246553934
O           3.00436703098585    0.72268858519259   -1.48673200654583
H           2.32430405827635    0.29068659611545   -2.06419480221570
H           3.84322289491670    0.32646690570310   -1.72505429205662
O          -2.25683953536700    1.18465188608168    2.10062466454047
H          -0.97427236469103    0.20356019073223    2.61278251485970
H          -1.81594032702965    1.68338653515650    1.39092167811593
H          -2.79980275494839    0.52891179223419    1.65001051840526
N           1.32961941456486    0.33436455706888    0.55020445532780
H           2.15385736123718    0.54395426275803   -0.05669582810090
H           1.55206055229275    0.21365059985295    1.53414854267952
H           0.62225102975448    1.08710017544123    0.43410739188757
H           0.88969183265575   -0.58623804237002    0.18439741966001
