    26
        -50.45498073  Gyration_radius:  2.47728883557 Dipole_moment: 8.711
 S           0.51262486085149    2.16210946753017   -1.07805604426029
O           1.74143683468300    1.67064262672009   -0.41088384424829
O           0.75634217098451    3.02029868484228   -2.18337581711006
O          -0.34252776978995    0.99965425069076   -1.39502457578965
O          -0.26170077739174    2.96158074770961    0.03113717272988
H          -0.38676423614422    2.30668253536486    0.73964642652228
H           0.00854518899833   -0.43740096043397   -1.89366310185778
O          -0.91647196064985    1.07621923864877    1.88163829035663
H          -1.41664923662875    1.51554730496090    2.57121795822273
O           0.28920166169788   -1.37739472860312   -2.09751876341768
H           0.24116410688080   -1.46433866818668   -3.05006449388131
O           0.40391316017300   -1.23473642685174    2.04372166074360
H           0.52438669367632   -1.46439658261337    2.96586792401506
H          -0.04928458399447   -0.35816218012034    2.02622514630994
O          -1.36218579752371   -2.23428357760989    0.00361141803441
H          -0.75939837595573   -2.08543061763177    0.74363192023772
H          -0.84148802277005   -2.10455114615086   -0.80386010120701
O          -2.44696539402605    0.24841478716418    0.02389555219758
H          -1.60296395606752    0.75207151552052    1.19631368593827
H          -1.84386043571494    0.61111098693864   -0.65817645753262
H          -2.29433480224741   -0.71970640938191    0.00028620439656
N           2.03080495523858   -0.80425525452530   -0.12425165608030
H           3.01104730642809   -1.05876072998198   -0.10068255582199
H           1.54819604466933   -1.06584365490118    0.75119856398744
H           1.91512532444336    0.31459441243579   -0.25044513575369
H           1.54180704017956   -1.22966561153439   -0.93238935673137
