    26
        -50.44262627  Gyration_radius:  2.54396874741 Dipole_moment: 6.015
 S          -2.22838768606874    1.00765617595196    0.18682572938524
O          -1.63201777648078    1.23311390576484   -1.10992172052534
O          -3.46795860910644    0.31895206111690    0.20691851433211
O          -1.18093139638072    0.24225934365413    1.05848847808140
O          -2.31025295902243    2.34034003980157    0.94728060739794
H          -1.40910610846562    2.75734327886299    0.77823255919982
H          -1.20461346444564   -0.74339577732256    0.89120417825647
O          -0.99029560759156   -2.32380209052432    0.76976188771606
H          -1.45982006136066   -2.74996349957767    1.48933770715987
O           2.19047219180321   -0.69058615697625   -1.05157769245747
H           2.77573764981711   -0.68297213752809   -1.80937105727233
O           0.02450123069244    2.95257892429481    0.11308184970855
H           0.67196545915576    2.34596399339849    0.52652979017484
H          -0.30784043115480    2.48244605349479   -0.66742674099739
O           1.92169234381869    1.16077805183371    0.91236159771303
H           2.77661065777351    1.56072404020186    1.07967252886335
H           2.02925090326282    0.57450071164080    0.13501119344560
O           1.46856204404326   -1.69234979715851    1.43346754825606
H           1.89896338796965   -1.58925666281463    0.57023781011962
H           1.31687591337039   -0.78848109137756    1.73804408597185
H          -0.03665127238690   -2.25055833036542    1.04610864522249
N          -0.25000086472708   -1.12692134827883   -1.91289328753637
H           1.25815532062201   -0.85691938042692   -1.41046980265758
H          -0.67011343918880   -1.82028822265257   -1.30327144975719
H          -0.75215080765166   -0.25355957213727   -1.74929558868165
H          -0.43264660828817   -1.40760250287618   -2.86833737112402
