    26
        -50.44151842  Gyration_radius:  2.61056604296 Dipole_moment: 5.297
 S           1.93641917146129   -0.03722519117690   -2.09766269891808
O           1.86168520625593    0.96846518184246   -1.06827625914780
O           3.09497184473720   -0.06445037743707   -2.90898757409514
O           1.71926232471457   -1.42712056641208   -1.41713199826347
O           0.68317348720851    0.08095017621482   -3.00391213427277
H          -0.10102985184886    0.13844099765995   -2.39643750556773
H           1.61447333513919   -1.34319211314062   -0.42783950676594
O          -1.38325378779021    0.15391567109318   -1.42728840121235
H          -2.16722938794819    0.00422962893747   -1.95857836502752
O           1.47443536890830   -1.29564912168273    1.16982851363902
H           2.34332694966116   -1.46330192809269    1.53910002059223
O          -1.78340134729329    0.25874987582518    2.51787503541900
H          -0.92921429132164    0.38027381564767    2.93998943206049
H          -1.89632541865483    1.01649744276530    1.92952677565049
O          -1.33443569048948    2.12159124680162    0.43132456262321
H          -1.15347667060590    2.97099474307797    0.02599013505735
H          -1.35419951481663    1.46368887865327   -0.29503981473082
O           1.08005303310872    1.26821836376075    1.45263781698424
H           1.55543618834064    1.36739177062707    0.60792808068110
H           0.18402449228565    1.59009760040637    1.24406373970861
H           1.27168289124626   -0.33536032567276    1.36141353989702
N          -1.35724941467885   -1.64690693972939    0.40195269400851
H          -1.35175597054724   -0.61763067957020   -0.72346350593526
H          -0.40485102020426   -1.94922692318435    0.57417642052787
H          -1.66368836599884   -1.13607588417546    1.23312551236879
H          -1.93883355088816   -2.46736532305635    0.29568546472207
