    26
        -50.45477156  Gyration_radius:  2.44882622344 Dipole_moment: 4.233
 S           0.30706665475058   -0.84682923759683   -1.39317561300342
O           1.14570840164931   -0.67885019478647   -0.23276423200804
O          -0.23870495044548   -2.16546243328363   -1.53402279207220
O          -0.83101204140066    0.19270629072729   -1.33760413099330
O           1.05319686074237   -0.44502739309279   -2.65740145725488
H           1.36717784207726    0.50849563561382   -2.47236790433654
H          -1.32400995343881    0.13206385151656   -0.41688583809334
O           1.64132405721888    1.96319414423902   -2.13532461303074
H           1.34169543390309    2.49588239868425   -2.87559764256658
O          -1.84741490608079   -0.01980464665529    0.93592897780523
H          -1.86850764766311   -0.99091799160258    1.03958488655250
O          -1.50184754522600   -2.70651302610636    0.72698239235606
H          -2.16471404272084   -3.38571886199255    0.58927953207644
H          -1.01859240562712   -2.61526410493553   -0.12397210883657
O           0.81539637658568   -2.07283056076235    2.24833656575213
H          -0.01166246281979   -2.49374711708147    1.98356013894153
H           1.25426770356203   -1.84538476598850    1.41913723646233
O           0.48408514367285    0.65284148248769    1.99061336867580
H           0.64262017904664   -0.06756274722821    2.61976777262406
H           0.89242101876638    0.31799402739301    1.16825587889189
H          -1.07803078643108    0.29786123178631    1.47553932781587
N           0.13453185640014    2.82226898644810   -0.12270827016395
H           1.10981319810230    2.26526804122190   -1.33460281972991
H           0.08156608624342    3.81973578575579    0.04338631438972
H          -0.79387363832288    2.48707728115916   -0.35160537045530
H           0.40749958751715    2.37852392405677    0.74766042007141
