    26
        -50.45553139  Gyration_radius:  2.45181606367 Dipole_moment: 4.711
 S          -1.20057600656085    0.57144329062519   -1.47157693784561
O          -0.69680422152114    1.44568842307315   -0.44615609061618
O          -0.14368565668555    0.11768548494506   -2.38063990988667
O          -1.96511861612238   -0.55733102666712   -0.96732009616838
O          -2.20166896155576    1.42532391099441   -2.35302002828380
H          -2.59742330539459    0.77374049088669   -2.92350020684138
H          -1.23697524802691   -1.62499329883562   -0.06066950411626
O          -0.69591866137288   -2.30094304519465    0.43654686376464
H          -1.24104567009334   -3.08771554705848    0.48354210692812
O           1.96575341488549    0.42722504248651    1.33440471267025
H           2.74146306483307    0.37965027249894    1.89369143040680
O          -1.80791128940003    1.34766974740661    1.94952777899083
H          -1.64455677834928    2.22093850117016    2.31009912049212
H          -1.47426640446153    1.37565527355202    1.02640573231537
O           2.05620390054236    1.58536171231702   -1.47180123435146
H           1.67871965345888    1.88199256045145   -0.63843895648181
H           1.29702010523168    1.32624682281506   -2.00833663180926
O          -0.07814333063561   -0.59850144011155    2.58295379136653
H          -0.76975035283897    0.09342066425867    2.49456993560876
H          -0.34955442808242   -1.29772907322104    1.96941972806555
H           1.19234772852102    0.10517532240426    1.87943689352152
N           1.45276329679652   -1.14297814148036   -0.73140631021176
H           0.81383524322639   -1.81952597296598   -0.27480846766174
H           0.88370747510795   -0.62634499756933   -1.46702617479228
H           1.76539363659747   -0.43150688029611   -0.00472351358292
H           2.25619141193327   -1.58964810646357   -1.16117404142161
