    26
        -50.46841999  Gyration_radius:  2.39236696063 Dipole_moment: 0.970
 S           0.26072139604349   -1.54298401241718   -1.04982909133627
O           1.12625978708971   -1.27446183195821    0.09055871563899
O           0.95196459575651   -2.02726617278852   -2.21028655603309
O          -0.69983292818426   -2.74023463854697   -0.57426878674435
O          -0.67338830007737   -0.44927621250704   -1.27809788835501
H          -1.96536287194907   -0.56919588452163   -0.20601061613560
H          -0.22709559599830   -3.53486790876156   -0.80420692952388
O          -2.64540011608542   -0.63017341979587    0.49738572179487
H          -3.13028987627405   -1.43506772350014    0.31197213945657
O           2.26839593256621    0.96916756102482    0.93001703883254
H           2.02090569456451    0.08586583264832    0.58366884563362
O          -1.59265220583866    1.84593910315243    1.50713174785106
H          -2.35962736191568    1.38068479321111    1.15198892697380
H          -1.08522288006459    1.13345184188354    1.95666494720077
O           1.89888714598339    0.48152484138200   -2.08705343888745
H           2.77628630722791    0.39576099280755   -1.70745145978198
H           1.62156676170970   -0.41290827304456   -2.33531473453071
O          -0.40168998317660   -0.47250522498548    2.15463394669856
H          -1.26702597284272   -0.82612849696886    1.90382226028950
H           0.20414680730736   -0.80881349952759    1.46683894806575
H           2.04876641475509    0.94242438552836    1.86490202483837
N           0.17224140626738    1.93127734114222   -0.44250715946171
H           0.27113882301047    2.68690815789140   -1.11074680523404
H          -0.09221665617654    1.04642802498629   -0.94252877879417
H           1.08889953231624    1.72569286235886    0.03074430529000
H          -0.57037585604921    2.09875757126633    0.29797269629202
