    26
        -50.43529499  Gyration_radius:  2.78744339844 Dipole_moment: 1.610
 S          -1.85314611920387   -0.84378417653427   -2.22674850912459
O          -2.50485249949072   -1.29373111456969   -1.04283396974697
O          -1.59581424440242   -1.76769989422642   -3.27384598744057
O          -2.71699433168228    0.34368208191479   -2.84326649977515
O          -0.54428150459536   -0.12156972213224   -1.85870895733291
H          -0.74172278149096    0.59291113302681   -1.12310459420585
H          -2.64257816377436    0.22023553405790   -3.78582601703889
O          -0.93114241891912    1.67838159444919   -0.15960678972924
H          -1.25024293502563    2.45191636183992   -0.62845543920123
O           1.29250498494265   -1.53884437580895    1.38248870636736
H           1.34263628237574   -2.47786104623961    1.56222027251860
O           2.13169445860872   -0.23057188128739   -0.89379741118858
H           1.37945820245677   -0.33016868321560   -1.48736237625082
H           1.92942165934581   -0.78761277819948   -0.12039038552704
O           2.17704296424017    0.73034149357099    2.64281473570123
H           1.88190951780093   -0.12695248561662    2.28213028129229
H           3.13100954995517    0.67741944444683    2.72026568174883
O           1.52897927010823    2.05786311547217    0.36306202978292
H           0.04148206894777    1.88204517937776    0.10216023531098
H           1.71283423439316    1.76888347538413    1.27972805438995
H           1.89933740673152    1.33652257538397   -0.19590620467386
N          -1.23250195198632   -0.83392269742025    1.48726548729635
H          -1.77210476568235   -1.12456658601763    2.29313081459514
H           0.31169893376332   -1.28965431122841    1.41536877389317
H          -1.72456889311781   -1.15268979914934    0.65365063151958
H          -1.25005890429776    0.17942757272571    1.45556741683899
