    26
        -50.47304697  Gyration_radius:  2.48621977494 Dipole_moment: 2.166
 S          -0.71149230279882   -0.50129950920950   -1.93619841337687
O          -1.27837711048704   -1.52478141135755   -1.06552915715135
O          -0.67522850634532    0.80175668114983   -1.30003775434274
O           0.55687442773100   -0.90836422715742   -2.50533282595484
O          -1.71601740343208   -0.35304890877583   -3.15417780808886
H          -1.54400501624159   -1.14250413892434   -3.65652041079833
H           1.78009505277003   -0.87808595987991   -1.46565000064012
O          -2.58351279651363    0.25434782742656    0.40411419319414
H          -2.48392100734032   -0.62645155112820    0.00284702904150
O           2.45728445411116   -0.86317044333859   -0.74089849391766
H           3.23913787259177   -1.28801976094466   -1.09718614025224
O           0.77469217485661    2.21241459562949    2.13735020535519
H           0.33393476625819    3.06060406013622    2.06840732272670
H           1.19926965691704    2.06124501851432    1.24628977375175
O           0.50068441116173   -1.86544954391755    0.87535244599629
H          -0.15965495470278   -1.90029649519317    0.15083352471292
H           1.32639754249196   -1.56899355791145    0.45221426440847
O           1.62599021017129    1.73748131875621   -0.28220766569630
H           0.78950856033845    1.52445330000300   -0.73895472618850
H          -2.05098194616531    0.79717420272149   -0.20895766509136
H           2.15515492376695    0.92860657467286   -0.35334788757280
N          -0.71161975552851    0.01164994494396    2.26043308394594
H          -0.99770784307327   -0.26089276486726    3.19400945081139
H          -0.13352765192365    0.89526613311367    2.28562650360959
H          -0.14064145014145   -0.76426367605978    1.80045916460770
H          -1.55233630845398    0.16062229159628    1.62706198689945
