    26
        -50.45099314  Gyration_radius:  2.71411072587 Dipole_moment: 4.628
 S          -2.38042376875753    1.15173845205214   -0.71072151869803
O          -2.14304414886141    2.00622617863245    0.45616235265460
O          -1.21093170342698    0.99386915071393   -1.53630041464467
O          -2.98468163301881   -0.11422785507007   -0.31158610297427
O          -3.47147084742558    1.90799871819648   -1.58390397893537
H          -4.20370488375662    1.99267598411106   -0.98023100662482
H          -1.89008017718362   -0.90951695278223    0.42881336846103
O           2.47107222918512   -1.12028483627656   -1.09323181241653
H           2.89793685427272   -1.41377820774117   -1.89901989597486
O          -1.19936040639093   -1.36617469207301    1.00031663815488
H          -1.70239200202396   -1.83193080750615    1.67125450041656
O           1.35285962591305    1.39550396406030   -1.01281165622924
H           1.77450247464417    0.53690880089442   -1.19688821458868
H           0.46215665933394    1.34947331608562   -1.41758306763126
O           2.76202858851603    0.13391269414619    1.45158129083950
H           3.33858592983950    0.86952996553270    1.23824599242100
H           2.73436527123214   -0.40816147139212    0.65102616589397
O           0.52299249292407   -2.83126275608422   -0.49449715190531
H           1.72862222367566   -1.74860919525520   -0.92943983027093
H           0.79867059861958   -3.48232128178186    0.15332624263319
H          -0.17239277539403   -2.29222897895624   -0.06621261907310
N           0.11296258902044    1.04214659388268    1.26801200907539
H           0.75868602539063    1.20805208808229    0.42674407310213
H          -0.78952788170271    1.56943598826798    1.05964710355400
H          -0.14206155295007    0.04128713331842    1.29920141670561
H           0.57463021831510    1.31973801693141    2.12809611604979
