    26
        -50.47039558  Gyration_radius:  2.41541577599 Dipole_moment: 4.708
 S          -0.64408433137452    1.47507739349873   -1.23995701824219
O          -1.03495119170530    1.92315603742649    0.08723296565456
O           0.77918939867078    1.33222718106631   -1.41764138836114
O          -1.38541055101570    0.26894310935466   -1.61789084410914
O          -1.10653416262844    2.60657950534552   -2.24522289682474
H          -2.01104063033645    2.75232937350844   -1.99026579585895
H          -2.24003514777195   -0.22069512618038   -0.29330805612906
O           1.36560879560562   -2.15392918693273    0.02690208500223
H           1.73141048920880   -3.02901255077003   -0.10690637694481
O          -2.55841123663118   -0.26965640968355    0.63762839868577
H          -2.47447054026302    0.64666902600052    0.93115078883529
O           0.56006077842052    1.19619618657274    2.09871225626105
H           1.42687589690711    1.06770759997546    1.64478896801960
H          -0.00981220420915    1.62958417797110    1.42809703415707
O           2.49859866395644    0.45346501586364    0.45807252151126
H           2.02444912399838    0.87523141625935   -0.28252952671565
H           2.34876454127257   -0.49573525415037    0.35358692467680
O           0.67427440405284   -1.20854455473925   -2.29331668384936
H          -0.22206332261322   -0.83864585997545   -2.15581388356419
H           1.21420452590292   -0.40998696204400   -2.36127655601372
H           1.08391921522606   -1.83183381076000   -0.88043215458735
N          -0.40600825498672   -1.18613790567537    1.85851092175753
H           0.23012421399680   -1.66748706343678    1.19247165584121
H          -1.33351511570719   -0.97172672910153    1.38611869028499
H          -0.53747220044284   -1.73644230467577    2.69941891214441
H           0.02632884261175   -0.20733234466975    2.08186904840124
