    26
        -50.44840760  Gyration_radius:  2.46573217649 Dipole_moment: 5.058
 S          -1.73952112881009   -1.41596827277819   -0.10562592675407
O          -0.99872916385267   -1.68995973235574   -1.42338711998536
O          -2.78588151621864   -2.35455572124878    0.05158432314663
O          -0.76692051635392   -1.33867999930024    0.96581415431447
O          -2.31742481190734    0.01711456725183   -0.30333549141461
H          -1.85777262278855    0.66862627299481    0.30382418273614
H           0.63629070922630   -2.16259352720913    0.46923900872583
O          -1.20911564272512    1.83218901814394    1.17651310685869
H          -1.74901553587931    1.97882577760782    1.95462134181144
O           1.43046696199998   -2.48642654938107   -0.00203499213156
H           1.10290479507310   -2.83632476201893   -0.83459254872546
O           2.63057513278061   -0.13532901860955   -0.32262714807237
H           3.45543313311326   -0.23663609034515   -0.79988783184578
H           2.29358409341224   -1.04866112683483   -0.14862112260053
O          -0.98679949518520    2.43266945417709   -1.50636843124247
H          -1.85610492817867    2.12391139042328   -1.77313852090261
H          -1.00696010630583    2.48513432173256   -0.53892639294844
O           0.50443937845844    0.24740469818193   -1.95527325490236
H          -0.38171526070517   -0.89266398414926   -1.66311432126879
H           0.03684654189562    1.10521539460218   -1.84621735171032
H           1.27635690782298    0.25390585681809   -1.35215623583230
N           0.96648980118956    0.69489386142106    1.98978846185819
H           1.71265572321048    0.71336512813735    1.30184956466943
H           1.37581505108392    0.82583077177341    2.90541894612306
H          -0.31612784405195    1.45093128770360    1.50737773667194
H           0.55023034370315   -0.23221901671351    1.94927582340844
