    26
        -50.44548429  Gyration_radius:  2.76415270813 Dipole_moment: 6.189
 S          -0.95677524001912    0.93891921432946    2.59330793512784
O          -1.74118715506450   -0.27546189385313    2.34542018624944
O          -1.06689167194411    1.46228619181098    3.91358854533592
O           0.58811114455784    0.45151809399899    2.44316327567741
O          -1.12146451284674    1.88572843069401    1.49908955695350
H          -0.69426367776384    1.69458209071966    0.06103272487897
H           0.76330169551016    0.16864867023740    3.33455506882995
O          -0.75702511515846   -2.67898672951550   -1.24219534259934
H          -0.99742245411116   -3.32313793639838   -1.90840166103740
O          -0.50059245629696    1.50775465606775   -0.91461681454359
H          -0.75694027774404    2.30432080828609   -1.38277938757317
O           2.10362734953545    1.31267090373352    0.24837427145647
H           1.32472714610603    1.53664661902655   -0.27919813778452
H           1.74874004177508    1.03346576706411    1.10347648360619
O           3.11759670602020   -0.73711030681424   -1.15033182933633
H           2.85377349537924   -0.00742305991393   -0.54575234383934
H           3.91668364194490   -0.44642394621571   -1.59118164474157
O           0.69288123793045   -0.76196471190773   -2.31003560689787
H           0.36796102189082    0.05894279743108   -1.91981911461887
H           1.60935580337482   -0.86390726781877   -1.97417685984002
H          -0.12241194247728   -2.04866829845134   -1.67404402408066
N          -2.08932767015050   -0.64775185889543   -0.14722108616757
H          -1.60330571197196    0.14082270271821   -0.60674200441200
H          -3.08324103549297   -0.62857657015263   -0.34896827750538
H          -1.65718009516112   -1.54565837256069   -0.48100359962412
H          -1.93873025782464   -0.53123598362315    0.93445966648998
