    26
        -50.44731622  Gyration_radius:  2.51350990576 Dipole_moment: 8.279
 S           0.62366956740002   -0.60187824882635   -2.53694151866104
O           0.80852151203805    0.82920665382492   -2.57264963418254
O           1.11474546879104   -1.37186608552504   -3.63277746478874
O           1.54901845821591   -1.07746856711769   -1.25532404573114
O          -0.73444607363473   -0.94766759053128   -2.09245720521159
H          -1.34279688441846    0.38155842246005   -1.57581656429056
H           1.91372253616568   -1.90066264269758   -1.56453543921814
O          -1.52353858204309    1.28963815429669   -1.18463426067335
H          -1.45948855672375    1.88412888986803   -1.93558207770900
O          -0.02711805526359    1.16554086363198    2.58697387568932
H          -0.27125070446128    1.78116442346933    3.27803330717236
O          -0.88262337285349   -1.88589711233822    0.41824748754331
H           0.02315014149246   -1.74917911808878    0.73674496793703
H          -0.87175872810581   -1.68390968180223   -0.53743731743903
O           1.41912188272697   -1.08200482449227    1.82731261394489
H           0.95733553368058   -0.39697336357679    2.33528196655626
H           1.63824589228939   -1.78402254602536    2.44092656209890
O          -2.11316088331125    0.24651826998771    1.38662550637968
H          -1.79382614050265   -0.64599937697723    1.09840312259296
H          -0.89222761625380    0.81422930763382    2.19996107219745
H          -2.25690447607552    0.72824876926554    0.56283982217232
N           0.83866026357923    1.21367973108456    0.02402655640727
H           1.48045078175832    1.88311049050808   -0.39266692011285
H          -0.10245624300265    1.30355837978398   -0.47824048797381
H           1.19858526598806    0.26767984973458   -0.18516479447327
H           0.70636899252595    1.33926696245420    1.04885086977510
