    26
        -50.44996483  Gyration_radius:  2.50780928303 Dipole_moment: 6.893
 S          -1.33765134868677    1.86759865743250    0.98498096421032
O          -1.19249643418458    0.91342383777199   -0.10040316573055
O          -2.29215971023353    2.89164904837800    0.78855107858403
O          -1.63647764752175    1.08281762167739    2.26845429747967
O           0.05539721599125    2.51152119989713    1.21299846222544
H           0.77020965893146    1.81213622014896    1.17744011140104
H          -1.03848749841703    0.25844874260212    2.27970759483583
O          -0.21804518216095   -2.55578325424323    0.08064382211071
H          -0.59474358719434   -3.39241093453703    0.35713957894985
O           1.94027524148123    0.74128624836370    1.13961509485462
H           2.78879052404611    1.18233001349302    1.20019056643921
O          -0.00840891366330   -0.86508848550318    2.19402071414080
H           0.82392966681184   -0.40015940509034    2.02072405809765
H          -0.13161085155594   -1.47278672148761    1.43175641027181
O          -0.11168805230578    0.84655273065361   -2.55104570765590
H          -0.50283780025239    0.95350821435384   -1.66140441867001
H          -0.24881173568836    1.67970916146077   -3.00345593398833
O          -1.92462803128392   -1.27278363681925   -1.47666387658576
H          -0.88533752250858   -2.13630745059191   -0.52108725627178
H          -1.92041819458496   -0.48637640321709   -0.90353425636867
H          -1.47870691687970   -0.98455735947503   -2.28037091816098
N           1.86120565421442   -0.68634811921402   -1.01082878533758
H           1.31951543772125   -1.49757362069411   -0.72758565006157
H           2.71340509337416   -1.01219012473086   -1.44782238816585
H           1.31439791629492   -0.18511768487792   -1.70713832825037
H           1.93538300825285    0.20650151424366    0.25511791164306
