    26
        -50.45280571  Gyration_radius:  2.3841764786 Dipole_moment: 9.803
 S          -0.82025585466525   -0.35874707515008    1.93505313717695
O          -1.47943975162494    0.23060350959012    0.74644875860341
O          -1.70396554005089   -0.56730606495610    3.02832478019257
O          -0.06932076767239   -1.55093840116527    1.51288557501800
O           0.25955479002850    0.70331011889478    2.35154696848183
H           0.81791059361170    0.77568335225682    1.54919587606214
H           0.16253669172167   -1.62063684586205   -0.03179534970898
O           0.31089569565526   -1.66546818807439   -1.02052870085696
H          -0.52784398188598   -1.97444905190746   -1.37420949400343
O           1.90158050268911    0.71324366636817    0.23735226563074
H           2.55648852810865    1.35604658688247    0.51316255559346
O          -2.37401128953326   -0.42879780125829   -1.60531432602484
H          -2.09220604350583   -0.26900354574209   -0.66770656627994
H          -3.32860292784439   -0.35561538990337   -1.60181526981121
O          -0.48199678586226    2.48392037220872    0.00028619525678
H          -0.87309811048622    1.67838429175286    0.43191724645574
H          -1.14465693376102    3.17175492235814    0.06852129159602
O           2.53716630355785   -1.68359209715552    1.15011893855776
H           2.25322674780795   -0.17429776465775    0.50097223323404
H           1.62156791451853   -1.72324721596274    1.50636472450240
H           2.56355850687258   -2.34901207542653    0.45884373224777
N          -0.00044975107413    0.74613030028055   -1.96667882869622
H           0.35184496216193   -0.16220720080758   -1.51209358060475
H          -0.99013600236892    0.52395149703515   -2.18102990931694
H           0.00755972598274    1.50748261825497   -1.24377794388026
H           0.54209277762443    0.99280749215799   -2.78604431941956
