    26
        -50.46846768  Gyration_radius:  2.39950127054 Dipole_moment: 5.640
 S          -1.52010983578184   -0.63251807082066   -0.77495770757600
O          -0.64551302317352    0.20711600932289   -1.62946507928978
O          -1.99959249544362   -1.79280427976270   -1.47590304386244
O          -0.80309198053786   -0.97799392376017    0.44719530422034
O          -2.73148911321330    0.26252616107304   -0.37416014348101
H          -2.36795309684502    0.95929405577769    0.22353932501940
H          -0.10457483220239   -3.27505558139707    0.19311809732069
O           0.08388524574683   -3.25774218828025   -0.75003501718793
H          -0.73318189996466   -2.86961155133550   -1.14152306458535
O           2.27006893617171    0.59408503600038    0.84831189981314
H           3.05908891624288    0.61733204161090    1.39104344560215
O          -1.63934949252666    2.21221362639013    1.07428840173521
H          -2.20084760550058    2.98374465490120    0.98095045234785
H          -0.83739618743592    2.37520042392793    0.50227998328248
O           0.43508012555365    2.33859160273296   -0.50598400373469
H           1.20438344785031    1.92995258262578   -0.08602578849093
H           0.03598452536864    1.63458240332169   -1.06273873355550
O           0.17927006652405    0.45511174307128    2.38605325316143
H          -0.24943560442381   -0.18740711299837    1.77588378759811
H           1.49755474211928    0.54671882106516    1.48790332085698
H          -0.39682965177068    1.22740726911746    2.34573189379643
N           1.53274269142163   -1.07925728188007   -1.17615044429256
H           0.68440175768224   -0.50014641717628   -1.49321381348842
H           1.91594932663369   -0.58965376553903   -0.33959067852057
H           1.10353338346052   -2.02141280269923   -0.93523252525919
H           2.22742166403806   -1.16027345528751   -1.91131911143107
