    26
        -50.47114528  Gyration_radius:  2.41078903665 Dipole_moment: 3.639
 S          -0.38475878972356   -0.44500219487418   -1.91740558907441
O           0.91359334914713    0.20906471249304   -1.92102859270259
O          -1.44731274751637    0.44606103313187   -1.48435958284927
O          -0.69258116896122   -0.81947326103776   -3.42506082541734
O          -0.39179994838876   -1.70501099184856   -1.19315598613905
H          -1.66301951955729   -1.64472538886806   -0.13529470382708
H          -0.59594070121035    0.01812917356787   -3.86548226280593
O          -2.37117136808510   -1.28095739862458    0.44315510775704
H          -2.76106663633002   -0.59416973303753   -0.11099756708664
O           1.73590236957298   -0.33610549502173    1.81012281117445
H           2.38195087471179   -0.63600704370520    2.45065200196908
O           1.58772529202633    1.92452746385412    0.04477262686722
H           1.83238485498293    1.28915619012766    0.73092388274408
H           1.43127994476521    1.39408262984127   -0.75977628238435
O          -1.00687470182267    2.24698279970318    0.42172429063785
H          -0.03937550749799    2.39255311464092    0.29259826928580
H          -1.27458126651371    1.72148289640962   -0.36218019886500
O           2.11093826088849   -1.63084915207943   -0.41187974808746
H           2.14352235788536   -0.90517353306523   -1.05622128518684
H           1.89897624044811   -0.87736851205973    0.98132255767703
H           1.23494169268293   -2.01490308635753   -0.60066958054328
N          -0.92692605026477    0.24003735081911    2.04682234017695
H          -1.51850638758899   -0.46613502168783    1.51383275103762
H           0.06808569914492   -0.05721888278031    2.05185012368099
H          -0.99383831795607    1.16119783107283    1.46452142104602
H          -1.27154783485971    0.36982447938554    2.99121405093367
