    26
        -50.45960408  Gyration_radius:  2.54575281864 Dipole_moment: 5.061
 S           0.82336755630909    2.03034862275070   -0.46645551528609
O           1.63211833206501    1.36675235277499   -1.47610459730538
O          -0.56517668471535    1.61600051230806   -0.51506420242059
O           1.41634909785832    1.92563938486523    0.85543069741334
O           0.81742239436898    3.58225757510244   -0.81658544713700
H           1.66605011035542    3.88489138105417   -0.50807841784418
H           1.57683783856653    0.38077695538369    0.88970799875521
O          -1.74750654419369   -2.54663547834118    0.41839580604185
H          -1.89376731942189   -3.42415187883351    0.77318133807138
O           1.71592269835385   -0.60872467695404    0.85989468056241
H           2.66799393656767   -0.72343490946649    0.87774872178517
O          -1.79060713113586    1.27944866823485    1.81078636017039
H          -1.28369250516242    1.48307084333566    0.99616047538792
H          -2.71344022045225    1.27728377807772    1.55036103594679
O          -0.28723265557388    0.19457757435138   -2.74656428486527
H          -0.92524486190392    0.69217011794427   -2.21404204416074
H           0.55498712820424    0.65568185833963   -2.51806053025538
O          -0.68698817969525   -1.11041057371546    2.30814495747204
H          -1.43482579784723   -1.98677209145940    1.18832439726649
H           0.22404460085194   -0.95645481199332    2.02542566866550
H          -1.11456149288347   -0.22616173552911    2.27209026180541
N           0.27522280518477   -1.77739983544461   -1.12031979314882
H          -0.01659277732880   -1.03192709909816   -1.84070020176811
H          -0.57468638970127   -2.14458535768535   -0.61311290894696
H           0.77943326436303   -2.52850818366855   -1.57884777305690
H           0.88457282695113   -1.30373297232106   -0.41171666314611
