    26
        -50.45137813  Gyration_radius:  2.48675249796 Dipole_moment: 4.459
 S          -0.18239584891743   -1.31063057102316    1.57457291442914
O          -0.68368047719727   -0.16542268337082    2.29281241618249
O          -1.11265065093940   -2.37588588490495    1.36987395517515
O           0.36631672021346   -0.82955227431507    0.21600632718987
O           1.09205738554898   -1.83517981458682    2.24718305672592
H           1.64911741545193   -1.00129793839360    2.32112726643441
H          -0.36833816631844   -0.42831358856655   -0.38529672234677
O          -1.42167623372094    0.06067453459647   -1.33349047911196
H          -1.81695377923254   -0.82065216579785   -1.49781635837784
O           1.61854482760163    1.91606934507605   -0.04707384990364
H           1.97800869518420    2.79986246664291    0.05081395456830
O          -2.21030016447633   -2.48005458804253   -1.09735756750771
H          -1.78283380740712   -2.56435118603689   -0.22248846478747
H          -3.11277327138359   -2.78085810666264   -0.97528712453756
O           1.98448384652707    0.56068662013874    2.29820913124369
H           1.12025107415601    0.80524412933942    2.65244575375290
H           2.00712194033613    0.92759157481598    1.38760954526928
O          -0.93684532813258    1.96546280766231    0.65718652252018
H          -0.96446418576067    1.29250487809004    1.36194516587253
H           0.65426561497905    1.98666653351815    0.17384324187908
H          -1.40794532648352    1.57215086332232   -0.08851617301432
N           0.80133891630096    0.57656303676192   -2.68937629076267
H           1.26995359457165   -0.29705376388368   -2.89441095393846
H          -0.75271418980447    0.24869814192904   -2.04557464143691
H           1.24888030284584    0.96879247647925   -1.86341608729810
H           0.96323109606339    1.20828515723764   -3.46352454822644
