    26
        -50.44592099  Gyration_radius:  2.58184029432 Dipole_moment: 6.942
 S           0.13926502810109   -2.59705206235891   -0.39936408731945
O           0.13793885840361   -2.29785449281153    1.01645090955541
O          -0.26793505616074   -3.89756302912262   -0.77665035359228
O          -0.73048994812084   -1.49961228786748   -1.09587786667501
O           1.53205389723941   -2.30592428715483   -0.98825804039856
H           1.80918385827495   -1.35579884688141   -0.79270900357653
H          -1.45291568079370   -1.26336541536112   -0.42424453784805
O           2.21698133098160    0.14707289875072   -0.63217982027335
H           3.05089303170099    0.28660230842417   -1.08376986916372
O          -1.19023254418389    1.26675074147957    1.86087289879363
H          -1.41964720582549    1.48303285635971    2.76587394373265
O          -2.24552137430912   -1.03197560482794    0.88357659301069
H          -1.67208660654442   -1.63675929091953    1.37641451924819
H          -2.01345844075275   -0.13086466517138    1.19550452863378
O          -1.02435028312172    2.99613431513821   -0.28194139113061
H          -0.70240290033310    3.81528419612345    0.09666685774571
H          -1.18235904710755    2.39010378231708    0.46321047263474
O           1.10266652275803    0.03631665719922    1.89120030871374
H           1.64569131144163    0.26029386810573    1.12132158171385
H          -0.27827121466968    0.85526362277756    1.89342986630804
H           0.81342583481879   -0.88310199705626    1.72772036361001
N           0.30029851025454    1.12846281900061   -2.03678550564840
H           0.45140863251599    1.45710303654509   -2.98147304459864
H          -0.31070222140892    0.31872996012775   -2.07349575769804
H           1.47942681379271    0.59912197093762   -1.20617884785156
H          -0.18886109694315    1.85959898623475   -1.51931472792719
