    26
        -50.46072728  Gyration_radius:  2.44934721594 Dipole_moment: 6.393
 S          -1.35464626578776   -0.62453024367616   -1.13784757039941
O          -0.02845149654330   -0.47638422655895   -1.76106215225104
O          -1.79566889520872   -1.98721576239424   -1.07282827223858
O          -1.29895694494111   -0.02596902630161    0.21968550117039
O          -2.35161550895105    0.20691193604937   -1.97565691515941
H          -1.87479466495265    1.03249397362013   -2.27261165462162
H          -0.94242811635380   -1.47588437434554    0.98750929886778
O          -0.51919060843360   -2.30169536704991    1.31683028987200
H          -0.99927251974142   -2.98408294251226    0.83641290184264
O           2.25214527795566    0.72311675198953    1.30238048492517
H           2.91583496767759    1.14787426452417    1.84655017768357
O          -1.12115867312433    2.43299106145141   -2.53246087395116
H          -1.72843048017748    3.15112824167000   -2.34030633276267
H          -0.48594002787835    2.40363169513319   -1.78042114821676
O           0.17331190222832    2.13851333231069   -0.23659774870543
H           1.06627086655051    1.83736459854813   -0.03899773033434
H          -0.40822068391029    1.37442718154019   -0.04512404263763
O          -0.00712128506727    0.32269399489229    2.62309786595264
H           1.43175315359384    0.66010754954102    1.85627968034697
H          -0.10354804213488   -0.59345252455656    2.89897258639014
H          -0.62396290996568    0.42739213913233    1.87974555925005
N           1.59709112081868   -1.49805358729288   -0.10755625591656
H           0.96616718836071   -1.06215862048865   -0.90123233577230
H           2.27701864335423   -2.14361187490226   -0.49238598370793
H           2.05157067882490   -0.71228742941220    0.39424992491510
H           0.91224333375353   -1.97332075114195    0.53337474544938
