    26
        -50.47163730  Gyration_radius:  2.39707570843 Dipole_moment: 4.639
 S          -0.84603846398244    1.57653826819666   -0.07713125081238
O          -1.62261866540377    2.21912141146215    0.94876936343474
O           0.59236343015313    1.60639033940845    0.15240426337174
O          -1.28888315621332    0.23423877374876   -0.41832558112835
O          -1.09991591731547    2.45268297214721   -1.39709798501240
H          -1.70650817186671    3.11263594562015   -1.07709698487474
H           0.12227395324101    1.09016318272568   -2.72109675776927
O           1.78830341761835   -0.67840438619941    0.97050192239566
H           1.54708032268432    0.24190438138075    0.75130655454744
O           0.95109803086050    0.80470970215134   -2.33013876632991
H           0.94116281780688    1.19441950875714   -1.43052599471716
O          -0.37758900453692    1.17514825741933    3.07088855356662
H           0.51067809470505    1.52009781348272    2.95842604499749
H          -0.92752586019179    1.64330977201556    2.41497214041554
O          -1.16149757935902   -2.41658902231968   -0.89791070402477
H          -1.42852228878248   -1.47997382241481   -0.90014419373000
H          -1.21926941731474   -2.68165463839220    0.02643819946412
O          -0.68250695434185   -1.18926920851008    1.79977773246351
H           0.98930994254102   -1.02372438200889    1.43555896134013
H          -0.68018008682098   -0.54715665153425    2.53326578154940
H          -1.02954251006630   -0.67900379535935    1.04545221518846
N           1.34308537895533   -1.66315861551533   -1.39363716207156
H           1.21461519590202   -0.77182588306332   -1.93494675067684
H           1.65782619913652   -1.34765177425727   -0.40968744773527
H           0.39644267230488   -2.11520914165652   -1.28402522048058
H           2.01635862029231   -2.27773901719396   -1.83599693332869
