    26
        -50.45684141  Gyration_radius:  2.39266340422 Dipole_moment: 8.885
 S           0.02980385066594   -2.05525396311065    0.42179234019393
O           0.62321039798126   -1.82138330949917   -0.89294333923975
O           0.27631364711428   -3.33252329311912    0.99181515734428
O           0.72537195102407   -0.93706603303977    1.36866858104694
O          -1.37485882693433   -1.62867857330092    0.44156985796349
H          -1.88313386132564   -0.45871600121498   -0.46454963060699
H           1.64968270212792   -0.88819823049643    1.00966925882737
O           1.68688058638772    1.80125615267330   -1.08510596101291
H           2.11479385075855    2.44904788972786   -1.64551689397875
O          -2.15560943465361    0.42168326783764   -0.86366099056506
H          -3.08690401036976    0.51491826046971   -0.65553111362399
O           2.82267531429749   -0.63089437745282   -0.09229064984424
H           2.28709366316739   -1.22187403892034   -0.65492724486280
H           2.67546990886919    0.26359545904854   -0.43649886313246
O          -1.94120101071014    0.11578148505335    2.39242254796426
H          -2.09864729327553   -0.32073126514284    3.22975924492752
H          -1.78077676318151   -0.60656408632443    1.75166889213852
O           0.14179714055992    0.23223956953282   -2.44095737916623
H           1.13550621644837    1.21925537658471   -1.69310193585237
H           0.32509432371734   -0.62260529788871   -1.98343236074447
H          -0.78982128583930    0.40658804186859   -2.25943607165976
N          -0.27210001764396    1.45385364362487    0.71714670245847
H          -1.09436387275474    1.21094944408751    0.09973312860480
H          -0.57649952689835    2.04288749792719    1.48647677669521
H           0.06222640685447    0.53465174055485    1.11043010014548
H           0.49799594365192    1.85778066047940    0.14679984598448
