    26
        -50.45572945  Gyration_radius:  2.67583387218 Dipole_moment: 3.281
 S          -2.20894464374921   -1.37745517862905   -0.31054678548740
O          -2.04710710298898   -0.35313671895260   -1.34101049185236
O          -1.51796542671468   -2.60149687779592   -0.58793754926856
O          -1.85144405792133   -0.83279299979367    1.00718327980170
O          -3.77063639392721   -1.67067330059036   -0.26525682181985
H          -4.15714780432044   -0.87940694950353   -0.63050343274415
H          -0.34826191828189   -1.52887946493488    1.17816719687721
O           0.56016742287249   -1.87363732815680    1.01349418274335
H           0.40687089789578   -2.77643378187671    0.71872941442009
O           1.39292393885628    2.03188669447995   -0.04602374520489
H           0.54341796333232    2.39644023698472    0.23335836280188
O          -0.95922891417439    1.60011641626644    1.44746521812567
H          -1.32858231315971    0.71311988332799    1.22726937141471
H          -1.62033758396501    2.02481714986401    1.99496781783944
O           2.73161037790758    0.95906017256993   -2.39174599612686
H           2.51206311216034    1.57736632613864   -1.68287127230410
H           3.51518755137185    1.30039003063615   -2.82356193460503
O           1.54674563355796    0.53639933676619    2.14285486060622
H           0.63636707121494    0.85610434639492    2.24402569551315
H           1.46587030269077   -0.40157720104864    1.92962310770517
H           1.72105196707011    1.57177141303818    0.76236369932261
N           0.55971456429696   -0.26529330945459   -1.18103763276795
H           0.71708642517249   -0.98829325454452   -0.44343470018618
H           1.13954555934341   -0.42655462024006   -2.00402317749156
H          -0.47481376918859   -0.26471969576056   -1.40531555296095
H           0.83584712063646    0.67287869478453   -0.78623311435861
