    26
        -50.45420593  Gyration_radius:  2.39526192155 Dipole_moment: 8.245
 S           2.04078326170095   -0.13993251510397   -0.32014851839118
O           2.11031155145132    1.32873217662263   -0.34038529782702
O           3.21333408328230   -0.80333945970967    0.14174650628385
O           0.85331191905661   -0.44838292540904    0.69881171316080
O           1.50828232346079   -0.65525825348289   -1.58433279876667
H           0.12704568635982   -0.18399395878135   -2.11824893863044
H           0.98551344848143    0.04980351980711    1.52802557437222
O          -0.76650911351903    0.17295636634675   -2.40646054460699
H          -0.79041923023132    0.06977687399836   -3.35863914784927
O          -1.80997183255382    0.66292832724004    1.38354154345569
H          -2.74951961685176    0.76599696311678    1.54197878253983
O           0.49467381940761   -2.88406571775731   -0.50760449420418
H           0.93208340800462   -2.16231587516050   -0.99832394681481
H           1.06731373445510   -3.05828639009646    0.24099153296524
O           0.42001838645002    0.82805863365204    2.98189145109203
H          -0.47299185850792    0.81646428553081    2.59401934634985
H           0.42670420529047    0.17708081381795    3.68592029718957
O          -1.75442411763284   -1.35382376085389   -0.24153831682249
H          -1.71890657785565   -0.18073042615908    0.83831057871924
H          -1.61331553581376   -0.90881869831697   -1.09005261345484
H          -1.00383406918814   -1.98055625472666   -0.17684993614566
N          -0.32154593741956    2.00468101156908   -0.49425424671072
H           0.76065133092247    1.77225562364987   -0.39362773554285
H          -0.63232051756727    1.49601643597072   -1.34655783473495
H          -0.83912243379770    1.60980152920587    0.31725835075738
H          -0.46714632745729    3.00495169501113   -0.57547131648612
