    26
        -50.45572935  Gyration_radius:  2.67563066523 Dipole_moment: 3.279
 S          -2.24655031406015    0.31377443578350   -1.31360289397138
O          -1.46154903287568    1.54588310324522   -1.26076336153864
O          -1.86206996149472   -0.58068554520480   -2.36478860288687
O          -2.24119941032776   -0.34854082110756   -0.00127772164997
O          -3.74152471026488    0.79016620656199   -1.56867401264849
H          -3.74600642433289    1.68974652998188   -1.25301235354486
H          -1.14464852823663   -1.55966877668358   -0.32406541579236
O          -0.36721350522058   -2.07216992973793   -0.64683729653363
H          -0.64753655328738   -2.38218499581476   -1.51327355804444
O           1.82210469266061    0.68626082431301    1.51077165527284
H           1.06501257236577    1.11368221418867    1.93093960363903
O          -0.92782083275394    0.49990277672954    2.11209863636529
H          -1.59510583727299    0.70850001271709    2.76657659947005
H          -1.42498855920781    0.24838224722528    1.29898157615405
O           3.54674843560416    0.92405870585671   -0.81692642013337
H           3.27289005800093    0.95392629158000    0.10886534847493
H           4.49340879625427    1.06784914099834   -0.83005544359202
O           0.78189423174548   -1.72109679005203    1.92377353027109
H           0.52711797526376   -2.13652912569590    1.09047373516171
H           1.70473547658021   -0.26554559634973    1.74210233444868
H           0.01866677877718   -1.18257699389918    2.18593626693218
N           0.84141301709530    0.34364834049084   -0.97484261862871
H          -0.00599924592609    0.94619402780020   -1.17244252747383
H           1.20871503254971    0.55619260796280   -0.00921857429959
H           0.52509443565760   -0.65196882543954   -0.99109793776170
H           1.60441141270422    0.51279996455973   -1.62964052769030
