    26
        -50.47250301  Gyration_radius:  2.48723575724 Dipole_moment: 2.890
 S          -0.03390743153548   -1.67201352808126   -1.53171431820422
O           1.19870789009754   -1.05057651063869   -2.00074969242283
O          -0.11149425314965   -1.69911024264570   -0.08368446707861
O          -1.20687735419562   -1.09769716557247   -2.16246444306993
O           0.02231016594225   -3.18508643981420   -1.99765180127646
H          -0.06508236287743   -3.08976782311424   -2.93983571444505
H          -1.53888187643582    0.36735676378784   -1.63146364183071
O          -1.76777906538502    1.25255672095233   -1.24372629373845
H          -2.27146336692228    1.71275955760472   -1.91671835311167
O          -0.41130099224430    1.01886204219311    2.52627368061600
H          -0.80365503919170    1.25617654979052    3.36664178323968
O           1.50494460917359   -0.86376265090550    1.91021101612630
H           0.89571755517729   -0.22795754872005    2.32825545085458
H           0.93915834422456   -1.40476508607203    1.32880632560875
O           0.27680268657269    2.33856755279304    0.20857408810212
H          -0.46152361682997    2.04533845517466   -0.35826841036694
H           0.03859090511909    2.05236085064176    1.10885665249099
O          -2.09322491154264   -0.30446582680767    1.04151947537775
H          -1.47628293472158   -0.95899499806325    0.65669498999655
H          -1.10637250464684    0.50025436775480    2.02578877938433
H          -2.28313824587681    0.30513160051744    0.31330604667745
N           2.18079346082121    0.55442928466703   -0.19643904169649
H           3.12802069731210    0.87153004904336   -0.36690689674500
H           1.84531190212248   -0.08100366848261   -0.97732410224308
H           2.09928071037784   -0.00699113244652    0.70454044535079
H           1.50134501860840    1.36686882644455   -0.11252153759441
