    26
        -50.44032579  Gyration_radius:  2.56949479409 Dipole_moment: 8.466
 S          -0.77502199161491    0.17857712738405    2.46509559162567
O          -0.14644937650146    1.17141213233340    1.62944012332208
O          -1.32979819528036    0.61753705174745    3.68988137617269
O          -1.84777729367937   -0.55131422366604    1.60228798413342
O           0.24854858128471   -0.95013825251327    2.75473266739408
H           0.58950684514347   -1.30906096450754    1.89540369327741
H          -1.91198144614344   -0.13695570519564    0.69559562278604
O          -2.11634644805858    0.31833261721622   -0.82405020591162
H          -3.01426989758075    0.10733854966358   -1.08611391970352
O           2.18931885023554   -0.38172830269628   -1.32710641013693
H           3.12097056871117   -0.35509848642275   -1.54949393611261
O           1.27504061218997   -1.99359438963396    0.58639016302322
H           1.62384038825980   -1.37046687036045   -0.09823313558865
H           2.03021759059165   -2.47191773633979    0.93391181989709
O          -0.86206596600012    2.83221485925778   -0.60017349993120
H          -0.79317236405224    2.75785088110719    0.35851909217321
H          -1.34916388676420    2.03948171678420   -0.86360145031533
O           1.66909451835206    1.89827092987785   -0.23172825814607
H           1.97702352678463    0.52665362273900   -0.95322108227316
H           0.96228514855971    2.39933080971789   -0.67928088206619
H           1.24048910744307    1.63327245338632    0.59986576044473
N          -0.51650756123371   -1.47324917103756   -1.86951165230932
H           0.38213810673171   -1.01862290134021   -2.00461897627476
H          -1.50611143643182   -0.34571926191457   -1.28550009528325
H          -0.74611628533647   -1.97602431830736   -2.71714430361553
H          -0.39369170565399   -2.14638216729197   -1.12134607656187
