    26
        -50.47298404  Gyration_radius:  2.48778943499 Dipole_moment: 1.923
 S          -1.90158052110566   -0.86198195541861   -0.49649069327550
O          -2.64191249286845   -0.31848882314738    0.62416148503694
O          -1.62291705424654    0.09514837738920   -1.54586019556654
O          -0.69587078226141   -1.56389032276219   -0.06119246620471
O          -2.84017177043642   -1.96136613621711   -1.14773919646218
H          -3.22407320998634   -2.37561120160462   -0.38223992306652
H           0.28039194834077   -1.54475017963177   -1.43629503672764
O           0.62903139721330   -1.15329278241820   -2.26628000781088
H          -0.14289973423949   -0.66162197604418   -2.58353296399941
O           2.90606261841836   -0.24894262794050    1.18530074269106
H           3.30992805047991   -1.11732581724594    1.15018608001254
O          -1.24250569961579    1.44168310938256    1.91749384821639
H          -1.81593916458020    1.95110181589120    2.49234166177099
H          -1.82474516509554    0.77908807602780    1.46342401098480
O          -0.23218045258329    2.11492567333956   -0.52068298994649
H          -0.49381166963645    2.05953410108589    0.41631687030058
H          -0.83562517814527    1.49719657938102   -0.98440955910037
O           0.52302112236831   -0.68292887716492    2.15388619343743
H           0.07418267833953   -1.11705946285776    1.40141642563059
H           2.03362268041278   -0.38086642752131    1.65232282096496
H           0.01954227683038    0.13092115217334    2.30515995737708
N           1.97178753694559    0.79271904410783   -1.07529562579818
H           1.15205104873602    1.42198502268331   -0.80687115851190
H           2.64906321595413    1.30572989742217   -1.62830376636437
H           2.41505939415645    0.40891275105673   -0.19694536302226
H           1.55048891651859   -0.01081902975362   -1.62987116069829
