    26
        -50.46018585  Gyration_radius:  2.38734703176 Dipole_moment: 6.527
 S          -0.39589867744989   -0.20251613053399   -1.93339182214878
O           0.09660961476246   -1.55642355548794   -2.20866641048380
O          -1.21258385714691    0.39700734117195   -2.93042881871199
O          -1.00835195020630   -0.19347451293790   -0.58878826721479
O           0.90037658845578    0.70021366203218   -1.81533383516877
H           1.41018849629856    0.44712943452728   -1.01985320431342
H          -1.36723037404672    0.39531081817253    0.98643034281961
O          -1.52257349261194    0.64411366362472    1.91885548850495
H          -2.26512887446064    1.25070177539369    1.90143742547907
O           2.19672272546974    0.18831767779817    0.47673855529070
H           3.08926475356152    0.53571461447863    0.43991764218533
O          -1.37206675991328   -2.16272854719592    1.19450207266437
H          -1.53516406037670   -1.58907440180476    0.42095825494728
H          -1.46397837068089   -1.57318494771750    1.95234629524533
O          -1.02461050804056    2.49345614456379   -0.80795183349054
H          -0.88374178610324    2.81515970840591   -1.70034011833204
H          -1.14993029627251    1.53656862480922   -0.91011222654127
O           0.69444415926579    2.10251172083384    1.29677636244477
H           0.22833919218319    2.43093761010225    0.50227549215125
H          -0.00548446031685    1.65707790593588    1.80854234129012
H           1.63006723076495    0.93135378505531    0.87132786091854
N           1.01875391947831   -2.27027217795366    0.04940808509936
H           0.64604707437474   -2.03892725106277   -0.96382608495550
H           1.57524982253741   -3.11806265323086    0.04953420355760
H           1.56675316887219   -1.45423302229828    0.36276885386172
H           0.15392673161984   -2.36667728667779    0.64687335489344
