    26
        -50.44740086  Gyration_radius:  2.73010350313 Dipole_moment: 8.571
 S           1.55210808192830    2.23511611913588    1.29202119440224
O           0.47648120632990    2.96651823651983    0.65177459139275
O           2.72454158542038    2.97576863678762    1.62078150532633
O           0.92363212651922    1.75901827768610    2.72625234503376
O           1.78182800902530    0.95199479297605    0.60602538995394
H          -0.52175934020882    1.44317026574933   -1.59148505260861
H           1.46581294925434    2.26177109842051    3.32510874022580
O          -1.40671769126934   -2.39513120968644    0.28009541198952
H          -2.14501307110386   -2.97702872444547    0.46198384947360
O          -1.15493090754659    1.72233516848803   -0.91876123447725
H          -0.64466528077875    2.38065014477744   -0.38230656188939
O           0.92410122750958   -0.20541112288015   -1.71062993324388
H           1.35902421806655    0.30218432994904   -1.00210494975671
H           1.22427544364434   -1.11831951848018   -1.55678675846992
O           1.10070467263103   -2.85191960180413   -0.94669189310761
H           0.95503526439670   -3.52188018739230   -1.61634965293379
H           0.30981279763175   -2.83316599302543   -0.38691018591086
O          -1.67212912937617   -0.96497469950419   -1.89205583646684
H          -2.15072879875363   -0.13477111762038   -1.81405013489996
H          -0.72538839691448   -0.71126924627700   -1.96939191004270
H          -1.60402814821370   -1.93395277788350   -0.58089734085916
N          -0.57990151674829    0.10204874346254    1.10035389762758
H          -1.02318307849359    0.67289229556639    0.32391761132728
H           0.47027381530660    0.28115052578522    0.95092494416986
H          -0.80828091591103    0.49030928843497    2.01180962506776
H          -0.83090514235015   -0.89710373471799    1.01737232866749
