    26
        -50.45070768  Gyration_radius:  2.66601364308 Dipole_moment: 9.218
 S           0.76373361508447    1.66625971280036   -2.09840961614717
O           1.77256621833851    1.90340653575235   -1.08227589885651
O           0.63056125322424    2.66863902388120   -3.10133796483788
O           1.28523155613201    0.33272318474629   -2.89030631199941
O          -0.48906323592280    1.19323171072769   -1.49611660083249
H           2.16041392548657    0.70565524323440   -0.20804892818284
H           1.55075754715486    0.72451305487201   -3.71570248820462
O          -0.93756864913598   -2.04387121773078    1.47356656085707
H          -0.74843263019018   -2.81603724198939    2.00683036721307
O           2.37420855627817   -0.15504478264797    0.26983188814899
H           3.32840822302541   -0.23429882016263    0.24433135899912
O          -3.18556361220436   -0.41373234315528    1.24238505108297
H          -3.61043871738947   -0.34807651963038    2.09902353501467
H          -2.49906736787703   -1.09607672101897    1.31997316872960
O          -1.27738397731750    1.60029333073765    1.07555699675758
H          -0.99295470785666    1.65366214838751    0.14823775072685
H          -2.08295684384248    1.05421554513321    1.06034767571549
O           0.41529446504390   -0.02568412559854    2.28080212543141
H          -0.16977737975611    0.70114858707655    1.94255198362600
H          -0.41296851246759   -1.27499407063364    1.88379742051142
H           1.21890842361027    0.02232001519095    1.74263207629391
N           0.17180713605763   -1.19503999448775   -0.84379217045299
H          -0.22291605992887   -0.22388304233651   -1.11035296654755
H           1.12915166777856   -0.99504400368806   -0.47658410103577
H          -0.39025096407886   -1.63798582895529   -0.08612548111777
H           0.21830005075062   -1.76629937051490   -1.68081544090317
