    26
        -50.46111919  Gyration_radius:  2.71355227678 Dipole_moment: 3.931
 S          -0.89552402919311    1.87331280754816    1.33097693039946
O          -1.92628526146589    0.99641562206145    0.78183894745673
O           0.21487272961471    1.13682921465853    1.89523712877976
O          -0.47697084371184    2.87244411886909    0.35952929235718
O          -1.57435020934991    2.65830853559691    2.52730707154458
H          -2.30652076039579    3.08266058923980    2.09168113547153
H           0.17096401391801    2.35570139333791   -0.99602575846904
O           0.57451342403683    1.93842330903803   -1.80594350300384
H           0.51115304992907    2.59576404470076   -2.49992308759444
O           1.29717050775674   -1.11592104795161    0.99344621510407
H           0.84752471700498   -0.48979908454987    1.59623348360800
O          -1.17343812827794   -2.85136552630662   -1.82569189657269
H          -0.76237981848957   -3.22904353676529   -1.01890435966955
H          -0.81801654797089   -3.34457688975333   -2.56596753182422
O           0.12312262231113   -3.55424747622408    0.44067332545980
H          -0.39706144167588   -3.76748742527078    1.21706318686353
H           0.67497192625275   -2.79154247580153    0.68516291191803
O           2.44098309295755    1.17725393764287    0.21339457845734
H           1.81032412623369    1.45806576982135    0.89531527568689
H           2.06127612539861   -0.59165746051657    0.68443642509671
H           2.08011352800657    1.50908738962288   -0.61838751414426
N          -0.50155774089474   -0.39188074030751   -0.90152087195372
H          -1.21558099665232    0.08446211289556   -0.28003680630331
H           0.24820756241054   -0.74720714715958   -0.26041548692477
H          -0.90268884734856   -1.19737828952134   -1.41898672969724
H          -0.10482278044328    0.33337826501755   -1.52049235194381
