    26
        -50.46736896  Gyration_radius:  2.43101692269 Dipole_moment: 5.870
 S          -1.39652206721761   -0.93805264667052   -0.27629169977493
O          -1.60743525923938    0.41160288591566   -0.83341788215867
O          -1.78878963807087   -1.97961046074493   -1.18714949954817
O           0.01351001021613   -1.07921623250923    0.11944793246445
O          -2.24519383469260   -1.04398505391352    1.01700666348447
H          -2.13980688547901   -0.16341419280860    1.46068839173199
H           0.98589304516545   -2.32563318057196   -2.11401369257897
O           0.34300529576288   -1.94004547869922   -2.71427669280992
H          -0.52475670125770   -2.05818418220765   -2.25742962757130
O           0.95973630422098    1.71078046769482    2.18836568029973
H           1.12333127646781    2.20588537432055    2.99229881983727
O          -1.73877101478306    1.44451985368675    1.60734603905975
H          -1.77256735999274    1.43870111719054    0.63697320375883
H          -0.80793633112474    1.61625389193771    1.84059131013299
O           1.89521473444009    0.75113266168809   -0.28549739469831
H           1.31105823568211   -0.01113933039699   -0.08101350881087
H           1.73748294304518    1.36819763117186    0.44243451555637
O           0.82247309252466   -0.90756389747989    2.61291081667398
H           0.96723272863096    0.75594788465742    2.44091212089163
H           0.42030710620907   -1.07323753107146    1.73001855064239
H           1.58235204209795   -1.48909539140616    2.67013378819988
N           0.38623082091168    0.69082241687816   -2.43919348443043
H           0.48191644771674   -0.32246877621792   -2.73016659821294
H           0.37195021767382    1.32603392517565   -3.22879754251888
H          -0.52250794785462    0.70431623256643   -1.87541941662073
H           1.14259271886289    0.90745201156258   -1.73646077300337
