    26
        -50.45607280  Gyration_radius:  2.38722367067 Dipole_moment: 9.528
 S          -1.10886147334849    1.00199783979428    1.49493436093615
O          -1.91098108504877   -0.04968480857504    2.07299779737195
O          -0.69266036403832    2.06737876930202    2.35911847870193
O           0.24635262736912    0.28201564761847    0.99640086342444
O          -1.67489634295235    1.50454956680750    0.22228499823094
H          -1.45625711628097    0.52398211530391   -0.88233787254502
H           0.23403859471973   -0.58951154156907    1.45904285725098
O           2.16141772058165   -1.35908333588499   -0.32526329320201
H           2.26225269092400   -1.25737499207136    0.62432029918315
O          -1.24753133815715   -0.06073219055681   -1.69201190223915
H          -2.00414922519583    0.04362828173104   -2.27125456363333
O          -0.20750608668564   -2.03988789981587    2.07609669127783
H          -0.42243626404379   -2.49906763103621    1.25364900080921
H          -1.00504931918557   -1.51810184128592    2.30753545909088
O           0.51443942512439    2.89810221772597    0.06746699238623
H           0.64517195429308    2.87416599470935    1.02571249798413
H          -0.41821174761045    2.59309725294523    0.00513316441831
O          -0.33968690409794   -2.42048395136627   -0.73294997773700
H          -0.56048008026575   -3.07784924811122   -1.39440168178524
H           1.32997380523697   -1.85939490349812   -0.44352831629538
H          -0.74578622947775   -1.57555271933192   -1.02167178239448
N           1.30311076739517    0.90966545999450   -1.46168471783760
H           1.12119383786222    1.71275675820191   -0.77194539999057
H           1.86896584149048    1.21710865586116   -2.24551662371205
H           1.74337703350352    0.09240923308929   -0.95556917410462
H           0.36419928944650    0.58586727872704   -1.76655814511379
