    26
        -50.45443560  Gyration_radius:  2.66538999579 Dipole_moment: 6.681
 S           0.16045480908355    1.69592097126961    2.13753234771457
O           1.26001299577031    0.79781161595597    2.49489735467630
O          -0.49633910029384    2.32329951492357    3.23395768278491
O           0.88286107244314    2.89894079019839    1.31325901647401
O          -0.69540743856733    1.07637376303723    1.13027001340868
H          -0.10231988526184    1.35698960007707   -0.32629087898701
H           0.88948255405407    3.58293715351761    1.97454655738741
O           0.47405040085466    1.47891816777045   -1.12861619008827
H           0.63687706255575    2.42273817326228   -1.17484678490753
O           0.52124240720027   -2.32660594959645   -0.27324678956271
H           0.63433670548366   -3.22076420871365    0.04992086197852
O          -0.31274262353263   -0.82994743659383   -2.54039129819044
H           0.05969835142244   -1.45627375421537   -1.90345911905639
H          -0.07982682053535    0.05162825832304   -2.21613017626521
O          -2.86455296854322   -1.06679934132932   -1.69274547328554
H          -3.30815532244461   -1.76673690779938   -2.17279857579794
H          -1.99859296253184   -0.92877880371713   -2.13593292529847
O          -1.64798458799592   -1.40212606217956    0.70938559831114
H          -1.40551574416955   -0.49984363511214    0.98845056272718
H          -2.24175628209385   -1.27729673462254   -0.05995462064556
H          -0.35151367109557   -1.99263136773418    0.13825709062685
N           2.02759235536907   -0.19370701604674    0.27992874336097
H           3.03363769072888   -0.28613758808111    0.19524663939258
H           1.63790716087536    0.49342603226562   -0.40348231590911
H           1.53998454804336   -1.11066488892648    0.11587453103251
H           1.74656929318764    0.17932965406750    1.26636814811913
