    26
        -50.45739733  Gyration_radius:  2.57134288107 Dipole_moment: 4.492
 S           0.16562127697029   -0.54201121698565   -2.54848672761494
O          -1.14267015254140   -0.04675498090892   -2.90260252048306
O           0.91224503652113   -1.17235462805111   -3.58759623573304
O           1.02448681384616    0.77944085533135   -2.12685534697116
O           0.14756148169550   -1.29232815644157   -1.27948358668535
H          -1.17772138136133   -1.26404566259873   -0.30420959894507
H           1.10139669638224    1.20380066009507   -2.97446224839509
O          -1.93920823647390   -1.17854929368107    0.31840657186365
H          -2.55607277444431   -1.87245461177104    0.08376919329205
O           1.43038127010931   -1.27778914907606    2.74087130354648
H           1.21043560021138   -2.20966301328124    2.78111664537515
O           0.16242500105815    2.02903346419753    0.72578538188736
H           0.38064813419658    2.94421980186292    0.54936124951784
H          -0.58982724142864    1.80095899242756    0.09742138791695
O          -1.81541267218635    1.34888518789290   -0.79611676855097
H          -1.58389100260681    0.93368721196386   -1.65845592479102
H          -2.20438889674036    0.62118686295552   -0.28812197926232
O          -0.82773564162739    0.05562148466850    2.52806622774386
H          -0.57981519628604    0.89774989702187    2.12332990160869
H          -1.32309870475279   -0.42521848582960    1.84364909439596
H           0.57325671787080   -0.78631323869148    2.84256510927007
N           1.75407676610132   -0.11080114514178    0.37207212855799
H           1.77717822996415   -0.61887897955788    1.29570278997029
H           1.25546990822214    0.80374700231867    0.49816046877340
H           2.68111632174904    0.03832509281165   -0.00974377049609
H           1.16354263560162   -0.65949394132741   -0.32414272592079
