    26
        -50.46934676  Gyration_radius:  2.405898073 Dipole_moment: 4.743
 S           1.36090480080335    0.08528041677044   -0.83513759068895
O           1.55752186217922    0.52738302920210    0.55733615112834
O           2.45651366161838   -0.69948560226259   -1.33317561271643
O           0.08637029624894   -0.63594727189577   -0.94744592140435
O           1.21390180309677    1.37785898172963   -1.69760451819436
H           0.82245364719983    2.05440559200363   -1.07849188778442
H           0.89714107550091   -3.14530380475096   -0.77864184262007
O           1.65112352390605   -2.94872954070944   -0.21625466962673
H           2.10085239941493   -2.19431209926939   -0.66353811342515
O          -2.30331697074274    1.64234490233431    0.45082777839467
H          -3.12842340209582    2.12612449767387    0.50880474389217
O          -1.64383933591240   -1.02307641301383    1.04313974381499
H          -1.99374096531005   -0.12387497570834    1.13535810424824
H          -1.16290692430494   -0.99573647189876    0.19101599116205
O           0.20020074531354    2.77553023465672    0.23866424965025
H          -0.71689910663854    2.48970283599935    0.40753434104934
H           0.76182096035704    2.14914731394241    0.72483417259366
O          -1.69718536066551    0.96335212236992   -2.03826045956204
H          -1.18084108057187    1.59466358258648   -2.54466099364967
H          -2.19485014354905    1.38831224418785   -0.50053191284770
H          -1.05557014831593    0.27631749035630   -1.75092292763116
N           0.79585474594903   -1.55559564132222    1.87078782780441
H           1.10103706416607   -1.76061406613961    2.81540367677480
H           1.20009930253338   -0.64513650295534    1.48956806417507
H           1.12376381096699   -2.27888617052760    1.17115002843227
H          -0.25198626193875   -1.44372470298651    1.78024159716491
