    26
        -50.46551648  Gyration_radius:  2.5716890832 Dipole_moment: 5.383
 S           1.43842397634990    1.36564928362623   -1.19080522305133
O           0.75029233669253    0.27849963322737   -1.88971194736372
O           0.54265136435752    2.14153233599082   -0.36401503675910
O           2.60740470370113    0.87271918669206   -0.48394059124829
O           1.97227512969142    2.34225698967084   -2.31486465303952
H           2.67416151129683    1.83860445943217   -2.71415002737015
H           2.31994150135915    0.02441591303925    0.83947354546289
O          -2.08596821904724   -0.17212052528190    0.87802753328894
H          -2.21246363576132    0.40664594290917    0.09050380912917
O           2.05233523782673   -0.56112932278944    1.59687150545976
H           2.86177266296347   -0.78674063492119    2.05736277022874
O          -2.26123276704207   -2.94987688413271    0.15963911939691
H          -3.06562647785274   -3.46279035670185    0.07699533173581
H          -2.51953021824105   -2.08874686133756    0.51716133071924
O          -1.79621796771412    1.30489224165377   -1.32373650623697
H          -1.05575502553269    1.82411464504362   -0.95615146954988
H          -1.37861114934691    0.76605030477845   -2.00319828430644
O          -0.13932456262025    1.18188556347725    2.08882608071432
H          -1.58647412475252    0.38361965713960    1.51794049803625
H           0.61538543684602    0.59364101889630    2.22332054139063
H           0.09255438449862    1.71470989795733    1.30803730376412
N           0.05151790160289   -1.42837194204514   -0.02779513469674
H          -0.81864960972588   -0.95377950026197    0.38059685125023
H           0.35060640026648   -0.85726211156096   -0.86434602609516
H           0.81074085290366   -1.39940223284643    0.67170077547227
H          -0.22020963268613   -2.37901671166169   -0.27374210633426
