    26
        -50.44576777  Gyration_radius:  2.49255433267 Dipole_moment: 4.978
 S           1.20669052334676    1.54944619113971   -1.45018745376443
O           2.33610806002292    0.72927536030650   -1.07932513111448
O           1.39266737998649    2.48089894751140   -2.49678756390417
O           0.01738017747520    0.59874437306264   -1.75995200455245
O           0.72347720696687    2.30679708334867   -0.17968424038202
H           0.01059446663666    1.80128631477200    0.31609960940093
H           0.30515197403940   -0.32582049239010   -1.43561249340875
O           0.95170237290708   -1.56724588480154   -0.83902085350832
H           1.85465199958009   -1.25860349445356   -0.98761551526781
O          -1.15403108709878    1.10259795560212    1.10545762526359
H          -1.68338163297690    1.76542190244247    1.55125311355805
O          -1.50816407022212   -2.70052248218015    0.15483974589222
H          -0.80951630958202   -2.80610902772230   -0.49883665845958
H          -1.05891407011085   -2.49223740449110    0.98102517448711
O           2.54916180894790    0.64249581296243    1.58189956564795
H           2.47149480203097    1.55524524292314    1.86409632241564
H           2.61566474789927    0.67169101516565    0.60690834294727
O           0.45777752095212   -1.04285455451834    1.68994207039084
H          -0.21014221797217   -0.33915229636596    1.64976617389763
H           0.79052864190002   -1.45502385427008    0.13992833037948
H           1.29602921716656   -0.57077379492889    1.86957027192448
N          -2.60158370907706   -0.15762890133565   -0.61027203512214
H          -3.60300023968775   -0.04050590887439   -0.68821465389593
H          -2.17581212452361    0.05831212547468   -1.50394654553488
H          -1.76963043953987    0.63308752764983    0.41682735048537
H          -2.40490500902806   -1.13882177601955   -0.39815854780527
