    26
        -50.46058931  Gyration_radius:  2.64043336086 Dipole_moment: 5.066
 S          -0.87710223916313    2.30717612135090    1.08646188829409
O          -1.68582860675380    1.13581369434951    0.71037196382892
O           0.40288030864894    1.89396829659446    1.61865503421207
O          -0.82337108166636    3.28282051167690    0.03087203555471
O          -1.65745151743003    2.99618621909908    2.29605490645375
H          -2.19208195818604    3.65035374301935    1.85597078019650
H          -0.07798551253816    1.95152453197214   -1.67152234199893
O          -0.18562957077716    1.03271005609661   -1.40737793116663
H          -0.75225485476901    1.10641407463538   -0.60278045682996
O           1.59110172230092   -2.59022477418676   -1.84424569206468
H           2.07753949285362   -2.61704026477378   -2.66889035676202
O          -1.19010889973098   -1.40905059515096    1.11120859078565
H          -1.52326570297726   -0.48186026922958    1.08952660010395
H          -0.30255090316566   -1.32527099216331    1.50819768409330
O           1.22713733794320   -0.51894904266640    1.95102011442701
H           0.90002124488946    0.41850655380568    1.85638115258787
H           1.72875544588423   -0.53679889383694    2.76690564818621
O           2.13334641912029   -0.34250498997191   -0.62845609076592
H           1.93508190802825   -1.79788420662782   -1.34592707330267
H           1.44653681624142    0.27807260191373   -0.92343777369544
H           1.97842879772646   -0.44980984043775    0.32670392839301
N          -0.84422399899990   -1.61082430052695   -1.44872001160187
H           0.04075893750477   -2.13668235238077   -1.67086334784372
H          -1.00450070742499   -1.62459763594479   -0.36756387746822
H          -0.69873534324843   -0.61690545799650   -1.69414427202597
H          -1.64649750427986   -1.99514276858353   -1.93440112161548
