    26
        -50.45420213  Gyration_radius:  2.65270285417 Dipole_moment: 5.866
 S          -2.86814189475292    0.20911405741549    0.22673079364341
O          -2.64199311025241   -1.23109034953483    0.09936148034954
O          -4.16590500086968    0.65281117057304   -0.16362403369181
O          -2.75773280640353    0.51514768401550    1.81175758803944
O          -1.73700032784867    0.93393052514702   -0.34900083579595
H          -0.64719876087574    0.90760157422030    0.83171983211282
H          -3.67792613997235    0.47812216207355    2.04891680436336
O           0.01664953727729    0.86891636670895    1.56799589788701
H          -0.51381470906982    0.95665864751838    2.36258120814670
O           0.45226267698619    0.73197793053004   -1.86843364123499
H          -0.45633019994955    0.98316144234828   -1.62758760331725
O           2.93968599512981   -0.51128702194524   -0.97371846886341
H           3.68870506776754   -0.65172573650393   -1.55370432835740
H           2.21941506270618   -0.16453638770789   -1.51926690250640
O           1.44890491775004   -1.40501974169358    1.22974740225632
H           2.19901975275032   -1.13347697375358    0.68241471616343
H           1.00355344248208   -0.58065193009541    1.51633273364936
O           1.92003117176452    2.05087924181197   -0.02607650374104
H           1.28348799760374    1.84618213884697    0.67913039101820
H           2.65825211300761    1.44513511774299    0.09060746706104
H           0.98961581207085    1.35006732501518   -1.32214034198686
N          -0.26253272181885   -1.67010689533089   -0.76494045166208
H          -1.27014297555947   -1.51701441648240   -0.40342886823346
H           0.02366041244269   -0.81087247762033   -1.28789996495262
H           0.38549897211723   -1.76079605388429    0.06867170511573
H          -0.23002427449381   -2.49312739940420   -1.35614608546173
