    26
        -50.45175565  Gyration_radius:  2.7833510473 Dipole_moment: 4.603
 S           0.88079976118354   -0.17953238807056    2.70567731514979
O          -0.52201547946287    0.22680042476743    2.68180412164391
O           1.13383417443643   -1.34800763313681    1.88762325119165
O           1.76969450560611    0.92897535302829    2.39675636748598
O           1.19128718518443   -0.60777865867105    4.20583531848688
H           1.01929506633987    0.18516111401392    4.70622753657249
H           1.85596669448388    0.84858033038508    0.80252561363320
O          -1.98065121765056    1.67221410867663   -1.73150759444224
H          -2.42129098904281    2.51358558120080   -1.61096648037974
O           1.78297990244664    0.58149174971631   -0.15323198365515
H           2.25385318091815   -0.25441336189500   -0.19713995752073
O          -0.76456866286295   -0.70273756502312   -2.86529845451412
H          -1.13714568588288   -1.42148535491323   -3.37676093452535
H          -1.48381970937238   -0.08886490169222   -2.67350714569263
O          -0.59588426327007   -2.68480978153027    0.39877891370782
H          -0.07561765442377   -3.30545406193283   -0.11341285877375
H           0.01711517480366   -2.31556342957064    1.07480490172242
O           0.59338712901728    1.75436049502872   -2.38374633774988
H          -1.04747658589215    1.87522141139797   -1.99537916601106
H           1.15994801487387    1.59475674486201   -1.61355265853298
H           0.53135631107463    0.90208331758435   -2.83349875840919
N          -0.86121805256712   -0.02735572218162    0.12051825758643
H          -0.99902430066058   -1.04607790402909   -0.02822770077253
H           0.12512002306010    0.19999372211517   -0.13698322083269
H          -1.50738776552440    0.55704553572962   -0.43232325546043
H          -0.91853677674751    0.14181088405949    1.16498490004468
