    26
        -50.46703664  Gyration_radius:  2.47711557248 Dipole_moment: 3.485
 S          -1.41296180385160   -1.40815692756968    0.75290363353533
O          -1.74761101153879   -0.27000612821983   -0.09587411167409
O          -1.85721561005763   -1.27702009686272    2.10895881925878
O          -2.22290358104629   -2.63276381447466    0.11804398026990
O          -0.00121907068222   -1.75861106814305    0.61688212461490
H           0.06228961542207   -1.73395258838135   -1.01406982893162
H          -2.49133171150990   -3.14487036228347    0.87469122500149
O           3.03711068456877    0.68417721242437   -0.12257485209071
H           3.60800922092423   -0.08565853461218   -0.13673840308520
O          -0.09593212418203   -1.49706038555298   -1.95869708266433
H          -1.04020180746576   -1.31148228432836   -1.97835719563567
O          -1.04835961473399    1.40792374815137    1.93187300277390
H          -1.38373080871977    1.13884849682260    2.79069730914870
H          -1.41542804077455    0.75126808922378    1.31490892096010
O          -0.90782704041806    2.16603607164678   -0.86102546095816
H          -0.77692484212035    2.51992729182579    0.02545132804085
H          -1.39794244145889    1.33482957868764   -0.71470293590029
O           1.40104959858266    0.16663046181834    1.83352424445242
H           2.46611357346793    0.57176358239121    0.68963694305197
H           0.66767267711007    0.78985461330703    1.97719906709056
H           0.97374275118089   -0.64251632677210    1.49176838211993
N           1.12926446678543    0.85456632363345   -1.94773263003217
H           1.43894118357889    1.19232143242621   -2.85234824668014
H           0.68556210476089   -0.10836791584410   -2.03295835417026
H           1.94111723226796    0.79905227673145   -1.26749161136468
H           0.38871642993364    1.49326723395666   -1.54396826712966
