    26
        -50.47250303  Gyration_radius:  2.48725336181 Dipole_moment: 2.879
 S          -0.36822353041590   -1.52201365142182   -1.64013165593687
O          -1.76901223723144   -1.18142051741131   -1.42316778051208
O           0.48816779576574   -0.35251844153023   -1.59052160368443
O           0.07119774504373   -2.59764941298274   -0.77207882739029
O          -0.26600617690828   -2.07954808144884   -3.11938563048104
H          -0.72280859560332   -2.90934471229668   -3.03472965261523
H           0.24297128601496   -2.13447710689116    0.74277350871684
O           0.40391203301212   -1.81419457044623    1.66894689564042
H           0.31353187366336   -2.58351051572712    2.23322211653151
O           1.43386141489612    2.03557223630725    1.18040968166195
H           2.14073491573088    2.56491501786002    1.55002279460763
O          -0.72110898713746    0.62724803673439    2.16060204037265
H          -0.36326809683896   -0.27676916865252    2.07536404284530
H           0.03314277437549    1.21917122736827    1.98799110599526
O           0.06568502969740    2.28498431901654   -1.19907179604898
H           0.61116098239683    2.39675082004184   -0.39901385850852
H           0.34254923514746    1.42714021311945   -1.57074443331356
O           2.31559440933980   -0.27295454039065    0.35641550183193
H           1.78527398561344   -0.35526695195741   -0.46162778939089
H           1.91183206580453   -0.90437198911433    0.96974186526413
H           1.85245029792337    1.18042626934339    0.87071842099263
N          -1.99134768596416    1.06147372671769   -0.11319532833115
H          -1.98200035310204    0.14611301715574   -0.64995061029964
H          -1.28921993941108    1.70035128049832   -0.59518445350573
H          -2.92223123412025    1.46122546782945   -0.09146011080180
H          -1.61683899774326    0.87866802836623    0.86405554638266
