    26
        -50.46809712  Gyration_radius:  2.531093923 Dipole_moment: 3.059
 S          -0.31571785298134    0.20112669129605   -1.98644334584636
O          -1.67758288986515    0.59008713991518   -1.67642506554299
O           0.66097280383482    0.88524660046769   -1.15902023789074
O          -0.15807629111133   -1.24797012854215   -1.96612239362940
O          -0.01776516348432    0.65502380117419   -3.47250385412313
H          -0.56502705009918    0.07725485733084   -3.99540362029941
H          -1.13886331129286   -1.60472078107857   -0.64946359085020
O          -1.63624636330927   -1.63878303214936    0.19580631743932
H          -2.51259900477732   -1.31098768526415   -0.02037008727353
O           2.80121447340393    0.16635810918762    0.49815915119241
H           2.30388544761733    0.64688187772809   -0.17779872425623
O          -2.49548416402643    2.04134166878755    0.40455397739799
H          -2.57704260901032    2.95604211886403    0.13213536245060
H          -2.29531817762240    1.53266248107081   -0.41111501715284
O           1.68319486470936    0.53383856678143    2.86037829564847
H           1.99113030917342   -0.18106661470703    3.41873281020920
H           2.23450184344133    0.49403781797878    2.03530913626763
O           1.47720282882431   -2.16593652741744   -0.02635649264747
H           1.02136540138241   -1.87225062418300   -0.83648906456362
H           2.55001250387160   -0.76375355279892    0.35758463909180
H           0.83205517337135   -2.68683612540151    0.45609802469947
N          -0.43362103619539    0.53949878705252    1.23708716783897
H           0.08605590278563    0.75854365408953    0.35264528493224
H          -0.87394587406863   -0.39402982777744    1.08175032738912
H           0.24500949047510    0.54645737463865    2.03477732630403
H          -1.18931125502902    1.24193335292582    1.31249366321672
