    26
        -50.44983141  Gyration_radius:  2.44694435167 Dipole_moment: 9.723
 S           2.01476346379719   -0.55482382273390    0.77162834652587
O           2.59982789509751   -0.05182739236225   -0.47889728951478
O           2.81071853746389   -0.36079298595291    1.93707713484433
O           0.66710038621646    0.29549677918785    0.93288364704090
O           1.48834101964084   -1.91084936953726    0.60285893597697
H           0.04457676782899   -1.90507557111919    1.38738262520862
H           0.90566928819523    1.24245273246319    0.92265002816095
O          -1.30260969919388    1.86372610606066   -0.96673895671246
H          -2.08095898917245    2.27409286644511   -1.34655696459958
O          -0.85785601415742   -1.87540400770999    1.78525953129490
H          -0.71025151789068   -1.76197012432514    2.72512036589674
O          -0.28005005294160   -2.30224144925470   -1.26563275966456
H          -1.04585734176296   -2.41229225865943   -0.69645085169371
H           0.48552996301146   -2.31094635360661   -0.63753224226347
O           0.67414362755104    2.94102411380342    0.64506355663537
H           0.27230067238261    3.29035964681553    1.44270796493344
H          -0.04657387530279    2.75423203582481    0.01947748381340
O          -2.31147342079822    0.10870177108000    0.72393022842279
H          -3.07821129413500   -0.43691787910575    0.54237964816467
H          -1.64531001449661   -0.49398044325602    1.13161339145065
H          -1.62805509668558    1.21515212438236   -0.29147334304142
N           0.58931732005063    0.09429639440238   -2.00494214696707
H           0.83501630374014    0.21530726929936   -2.98136137617261
H           0.12999272127440   -0.84026549998687   -1.84023461667419
H           1.50548148102424    0.07447753761023   -1.38004877133957
H          -0.03557209071311    0.84806779024378   -1.68016356973704
