    26
        -50.44983139  Gyration_radius:  2.44684789657 Dipole_moment: 9.723
 S          -0.19180189361838    0.72139629116825   -2.09885849171980
O           0.52310025346610    1.94554278310014   -1.71236490560145
O           0.06328044621352    0.25956107678779   -3.42218829529250
O           0.34734149721735   -0.37874050051400   -1.06716245444499
O          -1.60811314036896    0.79709945942240   -1.73431630689772
H          -1.96446754981323   -0.68121032982785   -1.11181907668353
H           1.32061459850946   -0.40930007526907   -1.14144035209655
O          -2.15333780305380   -1.53874212369657   -0.66177410292733
H          -2.08853494361293   -2.20002866815684   -1.35210748249645
O           1.63070849231315   -0.39480960222364    1.81394312006599
H           1.90263901868141   -0.64831492488396    2.69726983355575
O          -2.19648505730752    1.25536268992926    0.75865856103549
H          -2.50872780661207    0.37474763119034    0.98123697510348
H          -2.10046269641466    1.23112868484767   -0.22668311655459
O           2.95282394324473   -0.66013531084033   -0.60419932654770
H           3.14580609033058   -1.58710500873696   -0.75649858014136
H           2.67485823136231   -0.57416407011231    0.32372471234424
O          -0.43099233743543   -1.97116448170191    1.34366508056751
H          -0.91517538187533   -1.77111246616424    0.50778474828658
H           0.87456563167689   -0.98808739344490    1.57164440989418
H          -1.10586148723664   -2.18615647456291    1.98932912519511
N           0.38031727893577    1.88981427317663    0.81141557875252
H          -0.63896320415021    1.66558454612185    0.96098925982098
H           0.49684904335597    1.96080412330871   -0.28922580821078
H           0.62974937310676    2.77118132603948    1.24657826340811
H           0.96026941307231    1.11684855500982    1.17239862157301
