    26
        -50.46956844  Gyration_radius:  2.48809014953 Dipole_moment: 4.357
 S          -1.50678039431725    1.07667244812341   -0.03983833532832
O          -1.62129324008535    0.37341500870357    1.23847681444171
O          -0.90841007964408    2.37477236425950    0.05738908230380
O          -0.79543432470017    0.21299744920931   -1.00384115438980
O          -2.95576956150699    1.24289422082293   -0.60846662242216
H          -3.30059883436828    0.33353440991690   -0.57920446008551
H           0.62151889662119    0.78692775694756   -1.59493768849219
O           1.53706210109413    1.06015764403092   -1.84805105148230
H           1.43419358515057    1.77784945618214   -2.47445528945495
O           0.70776038870087   -0.37440900308341    2.29434311154492
H          -0.21935850359719   -0.08070941682890    2.19984009860428
O          -3.32854994811108   -1.28953987012408    0.22206810746551
H          -4.08984707988883   -1.41879043007410    0.79176082444755
H          -2.65770682104884   -0.81335911464779    0.75972932412470
O           2.86744806504487   -1.20656406411239   -1.19863096549387
H           3.56630861212589   -0.89584168856663   -0.61923146814475
H           2.48832311969291   -0.40962935618042   -1.61638257367213
O           1.57546959042866    1.71110582878913    0.87029612963723
H           1.21830045300355    0.39549869559074    1.95856198949786
H           1.86606179890750    1.53388032197213   -0.03610111476680
H           0.70444172506616    2.13168387830005    0.75355145457289
N           0.56060648942611   -1.74204942367383    0.09172749207750
H           0.68598543253187   -1.32341193985012    1.07941898783796
H          -0.08051857525120   -1.05991168484992   -0.40317227800967
H           1.47887781001946   -1.72800330181040   -0.40855750294820
H           0.15190929469893   -2.66917018904575    0.11370709813396
