    26
        -50.43928571  Gyration_radius:  2.45382323753 Dipole_moment: 5.177
 S          -0.93629822575889   -1.34015345503446   -1.27136704221373
O           0.18696231439150   -1.58592817821693   -2.12291241644565
O          -1.49151765620997   -2.47083692721190   -0.59806076997526
O          -0.52425608787461   -0.28419962139905   -0.18999004837580
O          -2.02964101697000   -0.55599252799743   -2.01559011855523
H          -1.65442564136673    0.37156936274908   -2.13173740643213
H          -0.07996241009334   -0.81558006137432    0.53599641798003
O           0.27703296074683   -2.00032383633982    1.52250027342090
H          -0.28471644907134   -2.63434330156721    1.05525845619772
O           1.28572773690133    1.81071614279692   -0.54030100173503
H           1.93691236222031    2.39960828200078   -0.92541779082675
O          -0.40750666248832    1.92823591842007    1.70840525384440
H           0.22209024033623    2.30069496107324    2.32850868518996
H           0.08431789443176    1.75955239320103    0.88775960489832
O          -1.01755335386338    1.81512676730770   -1.98067856998448
H          -1.60574827697193    2.26563741382497   -1.36905673480334
H          -0.16047173122164    1.73371392532914   -1.50372021590843
O          -1.45904243055178   -0.38823845611713    2.73923705590808
H          -2.29289589747689   -0.54003436723522    2.29077475557359
H          -0.28790100082509   -1.59079359444974    2.21666338227460
H          -1.12253260052282    0.46428420927968    2.39516333656936
N           2.36840228880894   -0.61099874039729   -0.58851816426357
H           3.31325000800807   -0.76881778256574   -0.91729642134190
H           1.73007454225657   -1.03152379791527   -1.26561807832828
H           2.25461348369337   -1.12468082626584    0.27824880338704
H           1.69508561912712    0.89330607822144   -0.53825123597437
