    26
        -50.46631275  Gyration_radius:  2.39733702397 Dipole_moment: 8.093
 S          -1.87873431992522   -0.27862171473283   -0.31566382777834
O          -1.01801049952305    0.46236173928772   -1.27007477794732
O          -2.64793161303090   -1.29417728620418   -0.96697293146802
O          -1.01260456721809   -0.84649034581019    0.74027722752016
O          -2.79977291081843    0.75700107579905    0.35532565781721
H          -2.18852251521638    1.41102284258098    0.80797466852921
H          -0.67668076063160   -2.39020250037062    0.10567749745277
O          -0.51512184436898   -3.00676599125827   -0.64021003203229
H          -1.35868347106244   -2.96854579592486   -1.11076603744317
O           2.47892547863543    0.26706386466615    0.16992224187676
H           3.37511275027758    0.35345090449994    0.49715015023223
O          -1.04300424899317    2.31171547460969    1.46276185976622
H          -0.46933093820808    2.60736210185566    0.72307961068213
H          -0.47166732149162    1.75139294040679    2.00616293040767
O           0.65479368921173    2.44600113606968   -0.62758134076360
H           1.41822633009433    1.89627359311607   -0.41438755933638
H          -0.00104121790586    1.83870291403971   -1.01934797884369
O           0.75569447178209    0.25436580435789    2.20079190624986
H           0.83913713448255   -0.29273351409815    2.98307718289496
H           1.88680960288074    0.27363246962917    0.95983829053799
H           0.03843546518406   -0.17168469209725    1.64675006939636
N           0.96189081077307   -1.09038014112809   -1.68041807714371
H           0.12991669365373   -0.39046576028556   -1.61601727966042
H           1.31788888601225   -1.15959319620058   -2.62741941617498
H           1.68574990267710   -0.73813953150578   -1.03046061932124
H           0.53852501272961   -2.00254638130363   -1.33946941545730
