    26
        -50.45886734  Gyration_radius:  2.37772960612 Dipole_moment: 7.212
 S           0.45771356705718   -1.45896660648076   -1.29722256087707
O           1.89705369903717   -1.52566784946746   -1.17061976656550
O          -0.16088795595149   -2.19789729116914   -2.34814171503901
O          -0.15101393659806   -2.07138250195869    0.05208645179662
O           0.01120961069819   -0.04291269476113   -1.27779964700515
H           1.04072017903042    1.11501087785674   -0.99927000976025
H           0.25688190455983   -1.62225229919522    0.81225196918420
O           1.55470939548766    1.93333623422967   -0.74535394886958
H           2.04579956123185    2.18923500393933   -1.52736396347253
O           0.59603156090537   -0.60605727364118    2.19615717491923
H           0.87669839666583   -1.11742072824550    2.95585694143872
O          -1.07247885099670    2.48958722805754   -0.28683299496998
H          -1.32149357541387    2.12450347854006   -1.14178366882295
H          -0.09475121000826    2.50367100933586   -0.30172277132072
O          -2.40281817109951   -0.94631415767918   -1.05329402227670
H          -2.35826626553433   -1.89621074273169   -1.19320705040610
H          -1.53296657877491   -0.63392880508237   -1.38687499158518
O           2.65835277005968   -0.02504694974277    0.82561664497786
H           2.49757963228259    0.84865813701692    0.43231450140000
H           1.44890642046383   -0.30462377841900    1.72869370637558
H           2.51477166651522   -0.65875466287447    0.07706865993792
N          -1.76355437853206    0.37616315191797    1.15670840326954
H          -0.92174795695784   -0.00991629840509    1.62073801778587
H          -2.50680596709742    0.54136778469304    1.82745765291647
H          -1.48730359993850    1.27907355449988    0.65996606691435
H          -2.08233992713779   -0.28325381016678    0.38457094004864
