    26
        -50.44596052  Gyration_radius:  2.52125542234 Dipole_moment: 3.878
 S           1.03917359214917    0.59132006212102   -2.16857067202982
O           0.54768806929772    1.81940664615004   -1.58452471554028
O           1.39316650627253    0.62570501488871   -3.53674241249576
O           2.25133559312482    0.08787560487565   -1.34959934693295
O          -0.03431368819841   -0.50528731018939   -1.89648386849315
H          -0.77681013884820   -0.06187769905014   -1.36280097221033
H           1.95148597918093   -0.20075945071747   -0.43921517467803
O          -1.74028559838100    0.81744322723026   -0.54956308201789
H          -1.45252849465567    1.63932085189489   -0.96340852260895
O           1.46878905535123   -0.84463150739577    0.92779936834966
H           2.21664107551123   -1.23337599128609    1.38403512815115
O          -2.42561150761737   -1.33442494061829    1.32706618720939
H          -1.96540948210532   -0.68990999281048    1.87717423446201
H          -2.78327095217967   -0.83345656396572    0.58789645435747
O           0.88535666798657    2.92704223836456    0.82879668505077
H           0.84687673321495    2.55826209060468   -0.07595409458566
H           0.97790388695890    3.87503135091270    0.72879239051586
O          -0.51421152128612    0.83364122256934    1.78608719774673
H           0.21813141625999    0.21199293356492    1.62840289952788
H          -0.09711119154802    1.70966768461324    1.70428234508935
H          -1.33795888584866    0.83456000238402    0.36304276375273
N          -0.17309694263571   -2.66721793260781    0.14149515443945
H          -1.05371218159358   -2.40007313551177    0.58794528608605
H          -0.03220429043428   -3.65953684850241    0.27556036941260
H          -0.26218079850126   -2.48045448172647   -0.85078896265857
H           0.85215710869612   -1.62026307562804    0.62927537020314
