    26
        -50.46047163  Gyration_radius:  2.37984478053 Dipole_moment: 7.199
 S          -1.96418327349071   -0.25016691047916    0.29439099583071
O          -2.20000303708592   -1.54241925273096   -0.30523007156811
O          -2.78845699610529    0.14039597037140    1.39562126670332
O          -0.47219203524674   -0.34564962583970    0.90317401652057
O          -1.84432112036099    0.81479260576889   -0.72535511717242
H          -0.57106480303951    0.85547100249896   -1.54094523360039
H          -0.08378882237754   -1.19935789377087    0.62705035383317
O           0.32311969374884    0.91413139059410   -2.01202760854784
H           0.17727116272230    1.47968291086524   -2.77206938375058
O           0.93268259167110   -2.49675536867376    0.13891905448890
H           0.53167770337597   -3.32209775040536    0.41678865018007
O          -1.06846229448328    2.31175110305749    1.24001208178919
H          -1.48491153120723    1.93628014777029    0.43101530141760
H          -1.50380970685564    1.79776754156144    1.93052689196145
O           2.30407786177650   -0.54720013433300    1.54603644757312
H           1.76068866236557   -0.64462721850888    2.33199628057013
H           2.04547250842695   -1.28311682288876    0.96468225414844
O          -0.25745716547862   -1.86236497649253   -2.06058794060383
H          -1.10141585864352   -1.78453073180493   -1.55708750574913
H           0.01891296747404   -0.95781287384661   -2.26411518243255
H           0.61215453865717   -2.34744655551628   -0.79950021666171
N           1.35018436119493    1.68310528518379    0.36616833676482
H           0.42610079680619    1.93722851366686    0.84177197238309
H           1.10331024327078    1.42324165520330   -0.61843044491293
H           2.00237462268027    2.45997090907315    0.39169986219662
H           1.75203892020656    0.82972704967851    0.83549491863679
