    26
        -50.45613056  Gyration_radius:  2.54649465235 Dipole_moment: 4.254
 S          -0.66258057299535   -0.54621475968731   -1.98932197229220
O           0.73833285195716   -0.26315644389519   -2.29768335293498
O          -0.98340476109003   -1.94212522770370   -1.99344395637277
O          -0.99433170302294    0.07073772856937   -0.67840435817656
O          -1.54359258525924    0.18700506251216   -3.05126193340917
H          -1.33048382920350    1.12984921504796   -2.92157479770465
H          -0.59938930202087   -1.23077251515547    0.23738514707377
O          -0.21338102281848   -2.03197193820388    0.66597610932056
H          -0.51796753845005   -2.74376970875189    0.09319135542083
O           2.21066741310085    0.94666533100235    1.65497328325996
H           2.85419540132920    1.10314569865765    2.34668398729052
O          -2.09897589862552    1.10382724751328    1.53007000134738
H          -1.74515463198056    0.78590974637763    0.67929184221718
H          -2.93898045634504    0.65871006952639    1.65428122230183
O          -0.85269548526088    2.46614598131424   -1.83296392315936
H          -0.72792693084617    1.72644834099751   -1.21257307550218
H          -1.46468885471652    3.07350811581642   -1.41069534461706
O           0.04044784285859   -0.06558822608420    2.75772120324224
H          -0.71837597757013    0.47892326469767    2.46876695856726
H          -0.07336626277015   -0.91493660962143    2.31434086476241
H           1.37551344029789    0.66058018682842    2.11075456495973
N           2.08161816289594   -0.93915022330749   -0.21958711523380
H           2.93440120080993   -1.44646252968644   -0.42842131899761
H           1.35609730738363   -1.54963623049908    0.22277030493787
H           2.25859762847063   -0.13158853817774    0.43112842127622
H           1.61542456388657   -0.58608305810290   -1.13140412757602
