    26
        -50.45613024  Gyration_radius:  2.54472204586 Dipole_moment: 4.275
 S           0.65689960965220   -0.17088098300154   -2.05636317739191
O           1.92373443864512   -0.49233749619782   -1.40074944485705
O           0.01096393679190   -1.30295893031350   -2.65023388934628
O          -0.23467609371797    0.49084436344302   -1.06804875396315
O           0.94728080269905    0.89449221180609   -3.16194451339890
H           1.29745927315154    1.65740453954435   -2.66534231062561
H          -0.94238496986936   -0.88110167819787   -0.51823883973870
O          -1.19161083401911   -1.78109752053680   -0.19785795449656
H          -1.25162076761373   -2.28633980341620   -1.01553327604992
O           0.76486846987772   -0.09323666199107    2.80950878677019
H           0.81517422514794   -0.23365855723883    3.75552196677062
O          -2.13245124300759    1.83723414646991    0.25373542883076
H          -2.93432103945652    1.77349033777113   -0.26793161264039
H          -1.42825742182719    1.42141818788194   -0.27678192559023
O           1.33352401993606    2.63982739329912   -1.17128160421592
H           0.81461487106454    3.43462003847002   -1.02680712047890
H           0.79723458411586    1.89808753043466   -0.83989116022622
O          -1.77428302922945   -0.14080546827611    2.10156548096970
H          -1.82385582112348   -0.85671635485271    1.45663495561084
H          -0.20112456751537   -0.01794455753197    2.58979163505249
H          -1.95679571218621    0.67501913193177    1.59472375573274
N           1.31846045935635   -1.71456699354465    0.77174787724153
H           1.89921888270894   -2.52307746595214    0.96470891297416
H           1.26434925876924   -1.06748273876353    1.59960690781097
H           1.68719433346304   -1.17827799303171   -0.09430426914251
H           0.34040433419533   -1.98195464814314    0.51376414434435
