    26
        -50.44463171  Gyration_radius:  2.43756037172 Dipole_moment: 5.746
 S          -0.66854467633663    0.48523893140967   -1.96060849542782
O          -1.30259308676149    0.97322320046535   -0.75544421566368
O          -1.26300978066403    0.84523877026679   -3.19173653010580
O           0.80619400808366    0.96696603746320   -1.96062252358180
O          -0.53718134472683   -1.04853606741707   -1.82663441876627
H          -0.89706905260924   -1.32554239015121   -0.90356248296683
H           1.22800688301820    0.64819026117750   -1.10999675984009
O          -1.42111480178431   -1.70406750806110    0.44660277269242
H          -2.31847610321616   -1.36557176121271    0.47992552050038
O           1.85942221008587   -0.00820635593646    0.17940081665092
H           2.79018734148070    0.19754042472009    0.28150210842916
O          -1.90006105682278    1.82318942593459    1.83039599444777
H          -1.28472623358118    2.56443733455994    1.79576403798982
H          -2.02627313057535    1.56463239593033    0.90703228150891
O           0.35223552339703    2.83502806926214    0.36967602730170
H          -0.21633254341839    2.19290273125625   -0.08704551211112
H           0.80278921838912    3.32691746054319   -0.31726561361633
O          -0.15835464641053   -0.20104839680320    2.12030141739826
H          -0.79754553947608    0.54283016112387    2.19427094096899
H          -0.91085357058453   -1.16726601323024    1.13653682846534
H           0.58422525361033    0.13873646500750    1.60148732174431
N           1.48392710957407   -2.57927501287763   -0.25392724106928
H           1.08693816656035   -2.56557675825190   -1.18694978545560
H           1.77742569368335   -1.00537947822917    0.04508927498019
H           0.73617887416559   -2.83566955373579    0.38055347537679
H           2.19460528492010   -3.29893238321123   -0.21474525984709
