    26
        -50.44463193  Gyration_radius:  2.43736401661 Dipole_moment: 5.746
 S          -1.35583147016748    1.61675385761346    0.26984250372550
O          -0.77256426019013    1.26451563921071   -1.00620772289660
O          -2.19285031073965    2.75563849278292    0.30227900669516
O          -2.15812110803592    0.39451120022777    0.78909918772200
O          -0.20129040790552    1.73807846870891    1.28967971469381
H           0.67922099799560    1.50127922253804    0.81359508888904
H          -1.53184646055409   -0.38639149768021    0.81803091605650
O          -0.45304424309401   -1.52924342122417    0.96923981236189
H          -0.82179058569740   -2.34687561193125    1.30777900232737
O           1.94842450254841    1.14728111936259    0.10204722591396
H           2.00607735660347    1.74932564207394   -0.64309786662706
O          -1.93168078861411   -1.06253291100938   -1.84814760412739
H          -1.57350220603256   -0.22012092933865   -1.52215165699202
H          -2.84964320794845   -1.08397306250747   -1.57668693761122
O           0.38484409887272   -0.02511737639792   -3.18767395023857
H          -0.36191103122673   -0.62235315635630   -3.30989875127156
H           0.04190078416241    0.68750595960937   -2.63089938587644
O           1.49782458023632   -1.13624604110299   -1.00975131565769
H           0.70385038763819   -1.45350894200225   -0.55695583714022
H           1.19986923873263   -0.83818448255916   -1.89840915163109
H           1.82499906163556    0.23012518278042   -0.30829052622244
N           1.25863462082598   -0.46876340692623    2.66800924439896
H           2.06272572504265   -0.23028976500541    2.09864525153750
H           1.59047103780210   -0.89564404917714    3.52370157491888
H           0.79294625833913    0.40193225895813    2.89905918585223
H           0.21228740977536   -1.18770238065255    1.64716301120121
