    26
        -50.46604967  Gyration_radius:  2.52095792453 Dipole_moment: 7.377
 S          -1.81344208403754    0.10325594279381    0.26136927498181
O          -1.02160596801720    1.33847522889083    0.27261282307083
O          -3.19686323387620    0.32381748529445    0.57104796768321
O          -1.71444415478545   -0.42413209821662   -1.24189969417218
O          -1.16362525489435   -0.94554199774621    1.03734466288981
H          -0.45082525509251   -2.04761370301166    0.07531766685494
H          -2.21244207513402    0.26701931944116   -1.72122927879352
O           0.02241709840600   -2.51308868852128   -0.65854264649919
H          -0.53636594851586   -2.34578997430315   -1.42345545903622
O           2.76572264000981   -0.46269550762986    1.84797618639639
H           2.85524113475592   -1.18228293426645    2.47483135056603
O          -3.13432272876195    1.76401572822183   -1.63147520743691
H          -3.48376383850303    1.37448011115975   -0.80612899502735
H          -2.51723192181754    2.44187471952298   -1.34281322313959
O           1.03130214028221    1.43159765597260   -1.27550927233208
H           1.48770114109245    2.22265131160041   -0.98245543230725
H           0.19848798246096    1.38505784250284   -0.72946839575798
O           0.44788167687604    0.60124536869996    2.44724580758962
H           0.12859356879888    1.32286135831595    1.88937636848638
H          -0.13548285609205   -0.13326675772975    2.17468198346614
H           1.94462944198265    0.02845824830994    2.12506826678609
N           2.11903419703224   -0.91925480990917   -0.68550798723387
H           2.87951650660982   -1.21561552375787   -1.28735911787626
H           2.44781370199895   -0.80898971243388    0.31352432554111
H           1.73624457380086    0.01598863488473   -0.99542072005148
H           1.31582950580936   -1.62252722787012   -0.70913126454967
