    26
        -50.44617835  Gyration_radius:  2.55370169082 Dipole_moment: 8.235
 S          -1.99539089047648   -0.80130997998143   -1.40908610541279
O          -0.77172755335465   -1.55328421470129   -1.23834114481358
O          -3.10920095795976   -1.48329579193925   -1.95028349376970
O          -2.33678217689524   -0.16583448627852   -0.02425842325471
O          -1.70429536633042    0.45118057534422   -2.26443866355141
H          -0.81772991161605    0.86079710108112   -2.02333501690741
H          -1.92681324350291   -0.79330563615729    0.66403873139536
O           0.67837542932838    0.13393002548042    2.41735368844057
H           0.51869002150387    0.33645317916071    3.33988311009920
O           0.60750770231733    1.49931906207943   -1.76626884068152
H           0.87466719856543    1.90373275721475   -2.59404255623884
O           2.68242106432492   -1.03671494556295    0.94908131307957
H           2.00343512843987   -0.63811763262079    1.52000997357225
H           3.52489842768337   -0.66851721459951    1.21788782139865
O          -1.01522421847938   -1.75011695706680    1.43956938626616
H          -0.33414492846291   -1.17550061287400    1.84992837369088
H          -0.62642359962987   -2.10036367959915    0.62459819960955
O           1.77757675289882   -0.77447357633608   -1.60670244921283
H           2.18647021133456   -0.93082689169990   -0.73319986934543
H           0.93631461312117   -1.26423774080738   -1.58709621407686
H           1.15147267987270    0.64796683327499   -1.68659315808511
N          -0.50312045254201    1.96325632442778    0.93926513438131
H           0.26278310264498    0.87712712289358    1.87545978787167
H          -1.38771237703469    1.52211065431237    0.70409063698344
H          -0.69744428561836    2.89995426065850    1.26984483046166
H           0.02139761986311    2.04007147429467    0.07263494810236
