    26
        -50.45974723  Gyration_radius:  2.43909418531 Dipole_moment: 6.832
 S           2.04092909207823   -0.35934956668787   -0.08268653601594
O           2.51077655385042    0.87291800593503   -0.66981597862778
O           2.98625158389818   -1.39328264440274    0.16131089077478
O           1.19296145439716   -0.07009757746594    1.11189541836863
O           0.98590787400896   -0.99296664894575   -1.12049521257737
H           0.34734894603850   -0.29024392460896   -1.38427058085079
H           0.41732324322256    1.30129883746701    1.40280761082736
O          -0.17192822252808    2.08651883082929    1.56067773186753
H           0.10395653402376    2.46427132268284    2.39615445239785
O          -0.81508862956171    0.81126900646727   -1.82251444369385
H          -0.93217230959736    0.87458687779282   -2.77116176427777
O          -2.23734310925430    0.59686845719777    0.51413402496463
H          -1.70218647524650    1.26614164869814    0.97760084233475
H          -1.94789938548967    0.65951924989277   -0.41228497654512
O          -0.31208344332883   -3.30993133317507   -0.61208500228769
H           0.37844862319716   -2.67141218036104   -0.87065619320278
H          -0.70455279650106   -3.63438338442886   -1.42395295304402
O           0.68183663660062    2.70113053594664   -0.99362177141403
H           1.48571624229618    2.12812551795592   -0.91816483639456
H          -0.27900928265491    1.63291590228792   -1.55053519999145
H           0.37274667852053    2.81957752394018   -0.08180275918089
N          -0.90054487903904   -1.52432009751447    1.33382545156367
H           0.05438888338130   -1.01579643778400    1.31096645183096
H          -0.85839621830155   -2.30286004155991    0.64792612752049
H          -1.10189355569048   -1.87304815495568    2.26420490623537
H          -1.59549403827471   -0.77744970516774    1.03254431944350
