    26
        -50.46400019  Gyration_radius:  2.54759760445 Dipole_moment: 4.767
 S          -0.07307051751546   -0.67941418132053    2.01123273967630
O           1.36108343739101   -0.87432693856347    1.83982968144136
O          -0.51078467969887    0.67184147386113    1.76938835555478
O          -0.82340314902376   -1.66417673555780    1.23007223400564
O          -0.38011052874873   -0.99413044391058    3.53134218595166
H           0.10457162795587   -1.79872064260684    3.68649226306938
H          -0.47050637841358   -1.89543776600137   -0.34062749747999
O           0.02429129382210    1.87958412861963   -0.55947585693503
H          -0.21154755028669    1.69153917366766    0.36931967842401
O          -0.23141653848692   -1.96079107717793   -1.29924020121448
H          -0.50861559510166   -2.83317588664987   -1.58239798590325
O           2.68638486843174    2.25127337173853   -1.60666517613211
H           1.78896957420670    2.47164173651587   -1.32120835654235
H           3.09573175494153    3.07377762173746   -1.87701033266841
O          -2.95000534699075   -0.11296588623218    0.69435354849063
H          -2.31469153910585   -0.81815880505937    0.91196173447611
H          -2.64947802441856    0.63624146674253    1.21813737385874
O          -1.80158428868384    0.37729170457986   -1.70298799062169
H          -1.32319183624691   -0.45882602547758   -1.79612074303851
H          -2.40043866402556    0.24366145597936   -0.93724949161560
H          -0.71846318967450    1.48711097064376   -1.09078787034437
N           1.68924748922270   -0.15643722130535   -0.64367025679042
H           1.04287907813047    0.69904869114618   -0.67486856984651
H           1.24967855470440   -0.91490287500283   -1.18267876400668
H           2.59110220537828    0.13274142175233   -1.01812563283403
H           1.73336794229024   -0.45428876218392    0.37098494090518
