    26
        -50.45971332  Gyration_radius:  2.45377178585 Dipole_moment: 7.640
 S          -1.59559554034472    0.96215940279134   -1.51518974773333
O          -0.35840713264234    0.80242575114773   -2.30477152302941
O          -2.79385120978019    0.79249753364664   -2.26225779901054
O          -1.51829402981000    0.04665283750829   -0.34577047142279
O          -1.55667685264272    2.39988245662001   -0.91746987594916
H          -0.69604298466387    2.43616925989336   -0.43979031451979
H          -1.06884125369871   -1.44192522278738   -0.30114751372129
O          -0.65496050897727   -2.35402031571899   -0.26341037531700
H          -1.35369790324032   -2.96864040463878   -0.48994856126025
O           2.36424602367252    0.05715117237363    0.64539136130335
H           3.19278911963240    0.13179771609381    1.11951388672050
O          -1.17884723124041    0.78288478633459    2.10379313681275
H          -1.38935240145399    0.52442991144627    1.16661058192799
H          -2.00153178418716    1.08430942522909    2.49019474796062
O           0.59517004933304    2.25320927967509    0.60171735200421
H           1.28421289230739    1.59049254181870    0.44148582651908
H           0.07731978771178    1.90984966553123    1.34910133567321
O           0.61314633814804   -1.29443691299388    2.02104162101473
H          -0.03022520953317   -0.60612783659390    2.26467494738281
H           0.16568764254220   -1.84148041966546    1.35722973266848
H           1.74138370574570   -0.45988549172115    1.23622446994796
N           1.26261029817544   -0.98647026383504   -1.59939961156133
H           0.55562521034789   -0.17977176409881   -1.92965579009193
H           0.67106443674110   -1.73403272077217   -1.19338318283854
H           1.81283867520714   -1.31836963933558   -2.38261849701051
H           1.86022987265206   -0.58875075793778   -0.85216572647801
