    26
        -50.45784392  Gyration_radius:  2.46084348387 Dipole_moment: 8.294
 S           0.17807754966232    2.04657308168239   -0.70495436356543
O           1.58519750385997    1.99244493980420   -1.12169879856420
O          -0.60176015883097    3.10359806926894   -1.24963587714632
O          -0.41048473834598    0.70920926418723   -0.88349359925781
O           0.20301550113402    2.26696127281143    0.86992427875454
H           0.43718262337677    1.41769855929307    1.29237987884095
H          -0.96503503069460   -0.77665990687156   -1.05001625895622
O           0.72640401201401   -0.12937793252047    1.99114211277658
H           0.81752641150406   -0.03490127046803    2.94053727277895
O          -1.28810121624375   -1.70924908245217   -1.09282101573967
H          -1.99231547621895   -1.70513753766823   -1.74354082029174
O           1.23846240376166   -2.49487066311996   -1.53350693562507
H           0.28173701461920   -2.27981171000816   -1.47262414405069
H           1.35034464039731   -3.34149444953579   -1.09790699570501
O          -2.59398856600234    1.43406551001259    0.42997655991303
H          -1.86179534933714    1.29129860662075   -0.19805843243626
H          -2.55540587939965    2.36858731478954    0.64094657929133
O          -1.70414004733334   -0.86416634855658    1.57018766713161
H          -0.21784366931614   -0.46189667403819    1.83479360995964
H          -2.15128138174850   -0.02739808542502    1.32660699930613
H          -1.68069091479671   -1.37694548990371    0.74774410838939
N           2.25863209052629   -0.30462969153124   -0.29721023618125
H           1.90247444434414   -1.09280227587293   -0.88576642824796
H           1.98950263348942    0.67745563165102   -0.74108013121875
H           1.78794150869091   -0.34328286679120    0.62119247376468
H           3.26634408077648   -0.36526827526114   -0.19311749377329
