    26
        -50.43933720  Gyration_radius:  2.72205901711 Dipole_moment: 4.466
 S          -1.78916371459120   -2.09121485570080    0.49749479945174
O          -0.67417016526531   -2.53004057529678    1.29551553193131
O          -3.08542250383060   -2.50815373425751    0.87915713085839
O          -1.72112121505790   -0.51960439335973    0.44980888034303
O          -1.54932641031419   -2.46856259219664   -0.98242297540718
H          -0.65461275889802   -2.11245890328565   -1.26353660065783
H          -0.97691207512541   -0.22576246520630    1.04754206479692
O           0.66240661420100   -1.38796195214450   -1.75423810831101
H           0.89305889526910   -1.68205782067893   -2.63687796643711
O           0.25877276532474    0.14154898840641    1.99827004413991
H           0.09119262295875   -0.33162416495807    2.81697467674238
O           1.20369314755839    3.02795952440101   -0.89138361296004
H           2.15901492849633    3.05996875984367   -0.95563297686028
H           0.99853767802707    3.05331072180772    0.06469143096433
O           0.58807989935516    2.86797112290401    1.75420473021968
H           0.53261174954314    1.90583923107706    1.88813416012707
H          -0.26489475322045    3.22859672160918    2.00122772202182
O           1.76258620450646   -1.56194881517031    0.76198415268312
H           1.07312476762246   -2.20082224259770    1.02026451612747
H           1.64272483391620   -1.45019477699363   -0.19379983661953
H           0.96723031096296   -0.39603432213820    1.52871899105135
N          -0.45714732945980    0.92102709578967   -1.89596212870907
H           0.26767218432323   -0.43167280111801   -1.84692327705978
H          -1.19914053850395    0.81871873662876   -1.21179950343384
H           0.14745978021264    1.68808432103931   -1.59326735878141
H          -0.87625487800062    1.18508919160051   -2.77814448623025
