    26
        -50.45971312  Gyration_radius:  2.45343539672 Dipole_moment: 7.629
 S          -1.36442920355909    0.78151732991277   -1.81286968808649
O          -0.17673040831592    1.17101758573756   -1.00700731676806
O          -1.42203335306337    1.45988710426245   -3.06156380808134
O          -1.38342923779669   -0.69088984264037   -1.91935598281207
O          -2.59796943796539    1.17883045656459   -0.94900350609407
H          -2.48646584272345    0.65543451835799   -0.12204043841688
H           1.28412177795505    0.64679147541854   -1.11396636982582
O           0.17150037566251   -1.76049611926633    1.69405285979640
H           0.24056753226864   -2.25379055170315    2.51183928970354
O           2.18566263117401    0.20887669315953   -1.10463092973165
H           2.69832800079570    0.64976341830246   -1.78299983529126
O          -2.00523673711151   -0.00292894530357    1.33398924429908
H          -1.49264373496149    0.76643533401479    1.63361903205465
H          -1.38930723166587   -0.75069184397113    1.36901089974765
O          -0.23689853631925    2.10417507498267    1.39780994077373
H          -0.44367294964067    3.03912708318744    1.40008342923472
H          -0.23868793972308    1.82037471562356    0.44447351670154
O           1.79199326587561    0.27937210977083    1.68753447822649
H           0.80920942842660   -0.99112009086207    1.76857070738429
H           2.13585693525723    0.30362981060121    0.78139347014465
H           1.17448141372273    1.02903354503471    1.74978621077002
N           0.57218891470138   -1.96166088078050   -0.97807486944351
H           1.38286252333605   -1.32772911993462   -1.09970408520753
H           0.70473727854100   -2.84633762208359   -1.45359862201219
H           0.39782060385600   -2.09300485184505    0.03480162311192
H          -0.31182606871940   -1.41561639653899   -1.40214926016230
