    26
        -50.44052755  Gyration_radius:  2.59257760345 Dipole_moment: 6.602
 S           2.23520733288293   -0.05215861695492    1.26371563826329
O           1.50020110438609   -0.74379347676256    2.29037586798381
O           3.64683264150416   -0.08383772562381    1.31095165597704
O           1.73376838543165   -0.61509610438552   -0.11417059268708
O           1.76417062299977    1.42089725435228    1.20340604817418
H           0.76385739323781    1.45196076835763    1.21501736611502
H           1.02289620262212   -1.29958179718633    0.04796178013777
O          -0.13435829038348   -2.36517066134248    0.34119626185116
H           0.28290573698265   -3.09782182395877    0.79888691829042
O          -0.81697163752399    1.61458232982884    1.16339233683948
H          -1.03245160639308    2.39332039502831    1.67978908631805
O           0.47779449849314    0.29429390002624   -2.51410657445673
H           1.16129477978181    0.06608507979087   -1.87347145163249
H          -0.07208556383976   -0.50357598993524   -2.60062371922583
O          -1.12931307126562   -1.93870711604989   -2.22197910829033
H          -2.08190483355323   -1.89337363645337   -2.12805295362592
H          -0.77735516064051   -2.21499948154804   -1.36169796142927
O          -1.15506790963837   -0.90778278971626    2.21823284191352
H          -0.24827588482636   -0.87201073922329    2.57712959582930
H          -1.29851081463263   -0.02281433050420    1.84701922143730
H          -0.65677293996296   -1.86486143116900    1.03939242133775
N          -1.07001805767770    2.29119468184771   -1.31557034961340
H          -1.99769313174109    2.28194990168802   -1.72034904336289
H          -0.50324465214342    1.59266477277176   -1.81778093185916
H          -0.65855784788515    3.19738619171887   -1.50088034174018
H          -0.95634730622044    1.87125043542314    0.17221596758973
