    26
        -50.46269067  Gyration_radius:  2.40633764643 Dipole_moment: 8.511
 S           0.37819351212645    0.66189567716268   -1.39220283103780
O           0.95371659459937   -0.45703591101046   -2.14562741548148
O           0.47556086893311    1.93313699994019   -2.03612909093874
O          -1.16720768932224    0.33887218151306   -1.26612670389188
O           0.90221221932630    0.65209445765731   -0.01910493760541
H           2.10335155117262   -0.26278152791908    0.67094580713701
H          -1.25702120703176   -0.50520471492554   -0.77951772068899
O          -1.39455512049911   -1.82160802412826    0.32831056233129
H          -2.28243822444265   -2.15062319838098    0.47531715441212
O           2.73695469405421   -0.97452896772458    0.92457672914037
H           3.59878894830293   -0.68290319524523    0.62323457598044
O          -2.49271701781953    1.88718309353250    0.75907710037792
H          -2.57465978564340    1.48989732985164   -0.11387233303212
H          -1.80140459846336    2.57321297088928    0.64396572125816
O          -0.25919461625656    3.26618324856102    0.15292373892215
H           0.44266051134443    2.95382816031160    0.72859577052024
H          -0.03232151367182    2.92052914590998   -0.73189328353255
O          -0.88294319440823    0.09989130194449    1.90025078485664
H          -1.58393324255752    0.76040521466586    1.68030503296968
H          -1.21723839920902   -1.13773636889796    1.07007738468638
H          -0.11466907653065    0.38850538544978    1.37114799194407
N           1.09659942899893   -2.42953267755243   -0.56252814404578
H           0.16294108340061   -2.45021719590590   -0.11818625032118
H           1.05452457423352   -1.63442889094400   -1.32490005574588
H           1.81424159806633   -2.09089380062002    0.12501993812262
H           1.34055810131238   -3.32814068418114   -0.96365954626051
