    26
        -50.44983160  Gyration_radius:  2.44675948376 Dipole_moment: 9.723
 S          -1.10991210826747    1.87611209720371   -0.45563278825489
O          -1.55865736387498    1.27099736071431   -1.71722603166229
O          -2.04763926592734    2.74856362077365    0.16806273649658
O          -0.87060918623449    0.61948920509896    0.50788090797590
O           0.24633023701380    2.41454809977739   -0.57880516896502
H           1.00343279509633    1.97360220377464    0.81150110624432
H          -1.70247788635934    0.10949411415694    0.55079598298166
O          -0.24659327413473   -2.45232313551610    0.16693503968953
H           0.06305406516627   -3.34829997201630    0.30785088042956
O           1.47826381585476    1.63547904651926    1.60755134730281
H           1.07178876173107    2.08724196962807    2.34828761681896
O          -2.69887511605128   -1.29990628181394    0.73888281836159
H          -2.87187290562021   -1.38214645175976    1.67861346017375
H          -1.94355688459408   -1.87754068957972    0.53522561609557
O           2.13175521475642    0.79299786417030   -1.34458607709205
H           1.48609081401806    1.52932412447606   -1.19723480601656
H           2.57872267286593    0.70595042599385   -0.49892897458261
O           1.27052192763704   -1.02910955351195    1.78922027692412
H           1.16627535496612   -0.05282076141087    1.69332965534863
H           0.27103004177995   -1.87580744897177    0.78494041305548
H           2.20729521075919   -1.17778922830332    1.92684428285443
N           0.02045570309367   -0.68622374471221   -1.97746235946649
H          -0.71573941174784    0.14076871300125   -1.91034882453983
H           0.00395591102754   -1.09415088465332   -2.90576576447996
H           0.95196262286349   -0.23570822515096   -1.77544977922521
H          -0.18500173583210   -1.39274244784158   -1.25448156652742
