    26
        -50.44411493  Gyration_radius:  2.4011342535 Dipole_moment: 6.553
 S          -0.82546639702056   -0.29077916290239    1.50924901838811
O          -0.21151571362893    0.90122041257510    2.10783196558760
O          -1.70904348779155   -1.00985461679169    2.36105874955092
O          -1.40778474932032    0.08767918608589    0.20455504481647
O           0.38351890414565   -1.24943742195057    1.15706569011141
H           0.74636922096761   -0.99568233697175    0.28741799597330
H          -1.02655965834661    1.53861420828933   -0.05265230234867
O          -0.61612870407238    2.46526931189980   -0.05182688926240
H          -0.59003301620660    2.66364876116415    0.89345497862566
O           1.33400045474794   -0.59500804879757   -1.29242146901849
H           1.99579050920554   -1.22875010240945   -1.57206346467042
O           2.27874052617142    1.25013264997209    1.78984134550134
H           2.54841734615230    1.89970624012425    2.44145895082781
H           1.32308064363956    1.01323030396708    2.00826378869655
O          -2.01625170212840   -2.56252593072576   -0.01174227437561
H          -1.93375913057941   -1.61425662360148    0.16553969688516
H          -2.06909101642002   -2.95561237772950    0.86210381449185
O           1.72278010493573    1.84644958602144   -0.58571872752291
H           2.07701977046092    1.66451955146903    0.37709198728582
H           1.62644912644442    0.92775010872374   -0.98727721047845
H           0.69290151590363    2.19371814921402   -0.42025088509768
N          -0.92211371286626   -1.22468848360888   -2.33323692670655
H           0.44697877237234   -0.84051458865368   -1.77492612686755
H          -1.49318855354921   -0.48739968336998   -1.93160736071548
H          -1.15863049886546   -1.32639775119508   -3.31199266363665
H          -1.19648053435319   -2.07103133080460   -1.83921671602437
