    26
        -50.44637527  Gyration_radius:  2.50004655643 Dipole_moment: 6.917
 S           0.98646976116101   -0.53763504859700   -2.15048894418209
O           1.18984988089105   -1.15350829470913   -0.85241068601981
O           1.01688219039979   -1.40653280115952   -3.26685005334369
O          -0.38833290450847    0.21102644527042   -2.07684527250810
O           1.95880176985584    0.63518284385841   -2.31943077847598
H           2.33201725905976    0.88546444837080   -1.40838499447341
H          -1.02662542407825   -0.53991058341667   -1.85119988042843
O           0.70321489515634    1.78002843544349    1.62908936625438
H           0.79085747220294    2.23837818997460    2.46558996817787
O          -2.55441140437139   -0.50486404389345    0.94235448653988
H          -3.51015857279167   -0.43445534300527    0.95438061051593
O           2.73391468632114    0.89534170120360    0.08280468086014
H           2.47950806088083   -0.03454279680794    0.16225512951746
H           2.07438879788798    1.39407925847818    0.60876785110326
O          -1.60701061091901   -1.82221076715458   -1.17819839963809
H          -1.99654550893595   -1.45593293416259   -0.34692866032736
H          -0.77461547197198   -2.24369104821377   -0.94330583035455
O          -1.51700940499051    1.73776312694023    0.01109542970890
H          -2.21718308225090    0.37982021905404    0.63646881535386
H          -0.74075379524170    1.92991923764414    0.56668651094162
H          -1.16709724466053    1.46403014376694   -0.84737118476364
N           0.24563209783277   -0.79638802685718    1.88741707492388
H           0.51863107857661    0.80935028626953    1.83537044870849
H           0.64793883551267   -1.40441802575878    2.58875112769448
H          -0.76075571182941   -0.92662693179764    1.89496409074995
H           0.58239235084504   -1.09966768066995    0.97541911344776
