    26
        -50.44355166  Gyration_radius:  2.5530572027 Dipole_moment: 7.569
 S          -0.17051755985088    0.70283236119456   -2.48744338915253
O           0.53546193368012   -0.53923960495694   -2.25146624112309
O          -1.23911661085006    0.65848159282242   -3.41714938945679
O          -0.68164255737203    1.21409736521831   -1.10261436451522
O           0.83869563922570    1.80218764654500   -2.84132107092497
H           1.60253000560677    1.64247074932515   -2.20064408759102
H          -1.41919411610333    0.63626553411473   -0.75083370681054
O          -2.52500453103544   -0.22777273897628   -0.00187151985081
H          -3.37451531117699    0.21028353422963   -0.07541411017294
O           0.90761959685805   -1.67405815106309    1.69542284621980
H           1.57492841464537   -2.36148564152263    1.71841605620845
O           1.64795820404629    0.89593973150404    1.43775621254972
H           1.39587190133665   -0.05154164947320    1.52529397538105
H           2.40690736004573    1.03166670690695    2.00747886889860
O           2.50209085807056    0.89995517146473   -1.13610286474569
H           2.11249040062692    0.06215089002248   -1.43059623924273
H           2.16473989188593    1.04126206114997   -0.22553098396882
O          -0.54949008796747   -2.18768077054651   -0.43353299518975
H          -0.11706783643932   -1.71686822289473   -1.17110619612120
H           0.33755438843712   -1.88667937507655    0.90815454819947
H          -1.41888574393205   -1.77942548945585   -0.34300694308084
N          -1.28968773085377    0.36107425081086    2.22912510468487
H          -0.78277956965429   -0.47827150382630    2.48953140845202
H          -2.15251233831445   -0.02753193564628    0.91969405083601
H          -1.70487333789137    0.75397864934507    3.06407379914249
H          -0.60156124302315    1.01790884878179    1.87368721137492
