    26
        -50.46631267  Gyration_radius:  2.39730368246 Dipole_moment: 8.094
 S          -0.80205752481707    0.94024676633890   -1.47646909191958
O           0.54586159722738    1.28250838175218   -0.95962292583293
O          -0.80142628674953    0.76691780340004   -2.89678629371175
O          -1.26612416338692   -0.27938361293598   -0.78035543440708
O          -1.74393702423504    2.08746437973430   -1.06739905657938
H          -1.71063541889289    2.12211698993556   -0.06536670946883
H          -0.73266545732195   -1.49738360934950   -1.84447861521901
O          -0.09669503549223   -1.86441840710766   -2.49513809682606
H          -0.16614325231241   -1.22494368913159   -3.21677891375669
O           1.25322074103492   -1.25003906632569    1.76498108655670
H           1.48537529927941   -1.77866785200810    2.52939655871692
O          -1.52282441076201    1.98933184690830    1.51536399846072
H          -0.56167590456190    2.09265966533596    1.68633125791938
H          -1.72225303612513    1.08163420289667    1.78349976749847
O           1.15539808477036    1.69555581051610    1.60977636724347
H           1.05161933730133    1.70408555440223    0.63939785042224
H           1.33711357512484    0.77660677211580    1.84008627755396
O          -1.37650042801961   -0.83212952141540    1.70051562149009
H          -1.36089979520632   -0.60237410850936    0.72588842086061
H          -2.03885281774018   -1.51822768802709    1.79468988117744
H           0.27472115488542   -1.12288348860152    1.79488485818895
N           1.79551937388319   -0.93892860969189   -0.91442415276489
H           1.36525823216860    0.06089245639485   -0.95691014777748
H           2.76685565514711   -0.93914853614838   -1.20564569259042
H           1.69585278376720   -1.25392542349128    0.06593923059712
H           1.17589472089278   -1.49756700692914   -1.57137603595888
