    26
        -50.44355164  Gyration_radius:  2.55314446613 Dipole_moment: 7.569
 S          -2.31743560425883   -0.53988549071467    1.02477973315318
O          -1.21604719215141   -0.55428496245376    1.96469581104979
O          -3.42468454054716    0.27959695838467    1.35750265967398
O          -1.73502030447588   -0.12179022913886   -0.36315378644539
O          -2.75193095790200   -1.98058374942195    0.72814813227148
H          -1.87971760823061   -2.48205249859334    0.64381671719710
H          -1.46315137587326    0.84138959463910   -0.36878606065656
O          -0.88826837944526    2.31681041708113   -0.51993928183848
H          -1.50778919300788    2.84986362587941   -1.02095529360702
O           2.51143690135089    0.22261460401161    0.38160462238800
H           3.14900432059503   -0.04388620279974    1.04563062548899
O           1.28429922050795   -1.64232842978950   -1.11354304736626
H           1.73949110188050   -0.97437415248467   -0.55176709588625
H           1.94821625621845   -2.28550758533251   -1.36773566183988
O          -0.33089465310211   -2.77262688559086    0.74891424459071
H           0.15283043331835   -2.40740258944613   -0.02278696101018
H          -0.27676629633188   -2.09061314926191    1.43623475816256
O           0.58186586403517    1.42083210464822    1.70855586586011
H           1.79714066280786    0.70344069148140    0.88023938284691
H           0.09409936250558    2.00880524458540    1.11946246981337
H          -0.04848499250353    0.71713141764618    1.95364037090315
N           0.99088372638929    1.29287384524904   -2.02647469893618
H           1.82366140785509    1.27283054197448   -1.44739022057098
H          -0.14462700905578    2.03399086381537   -1.14862954653247
H           1.25539072562660    1.59921188407416   -2.95388024272935
H           0.65649809382470    0.33594411156558   -2.08818350597228
