    26
        -50.45842495  Gyration_radius:  2.57947499842 Dipole_moment: 4.633
 S           0.75261942115634   -1.85700077285570    1.53745462838674
O          -0.11469132578817   -0.84877108622101    2.11708864705781
O           0.02820490981785   -3.01375643525638    1.05696591629738
O           1.66703827759636   -1.29117323660370    0.55652585285366
O           1.69220877833002   -2.38614726842608    2.71807591892239
H           1.12365010550551   -2.99884724440397    3.17436861546506
H           1.99987023539469    0.20308911845514    0.36579796068560
O          -2.17354136030792    1.08125865355500    0.07103312118424
H          -2.94886579485446    1.23225830631221    0.61240792662273
O           2.15234241268795    1.14347167883101    0.04549068760428
H           3.09693326032044    1.29140674091776    0.10443132256558
O          -1.04497231906621   -1.38413095301134   -0.69054634813774
H          -1.54533787903724   -0.72951477804134   -0.17651926966799
H          -0.68323233643851   -2.04010864679829   -0.05369107899271
O          -1.58517097788536    1.77193296109291   -2.43678131689539
H          -2.25727737099743    1.35688357563250   -2.98014857276349
H          -1.87469117590236    1.63990166294570   -1.50496125997150
O          -0.13463618557490    1.70604593428483    1.54888483482528
H          -0.10676553811419    0.79159916604093    1.91371297771963
H           0.68811294164656    1.79399030678056    1.04840649640343
H          -1.39610903467146    1.38411354437656    0.62666970345794
N           0.55320753789080    0.23831459001718   -1.95312169439710
H           0.00977424576917   -0.52084747621483   -1.40940381471967
H          -0.17157761611674    0.92567502784375   -2.27763070501056
H           1.21549032969517    0.69081096534439   -1.28813969423791
H           1.05741644880310   -0.18045433458278   -2.72637086527730
