    26
        -50.44252368  Gyration_radius:  2.50242716325 Dipole_moment: 6.746
 S          -1.94424546634390    0.60146288002061   -1.55253643662858
O          -2.14579887168398    0.98629013729872   -0.18599335500078
O          -2.62575737137011    1.31994857027410   -2.56314963876397
O          -0.38493831779755    0.65249598925670   -1.82601188135283
O          -2.20557145952794   -0.90824740760960   -1.71283158944663
H          -1.75738198112836   -1.36209421472908   -0.93409583139234
H           0.07146531797839    1.24016914365950   -1.16698475921975
O          -1.00708265140710   -2.09443918956381    0.22090116701413
H          -1.65953813610145   -2.63190878321979    0.67187618173293
O           2.59302306370181   -0.16688532462321    0.21928358250188
H           3.51981531707621   -0.24300409282854   -0.01166957295350
O          -0.75480143842235    1.93161271884511    1.93833043998508
H          -1.45725034276566    1.69161843598483    1.31310251362231
H          -0.05915041380915    2.30502429467357    1.38630445777995
O           1.14524732562226    2.02960107764610   -0.22011632499866
H           1.68044808595354    2.61160488274458   -0.76304247276751
H           1.71639836700602    1.26457431316138    0.03492373443199
O           1.16126017127848   -1.63540586742980   -1.43607402979415
H           0.66623621263005   -0.93673642895310   -1.88762206403909
H           0.50112490695394   -2.10464016226798   -0.90490765939679
H           2.10253852564455   -0.77781553078445   -0.39370309228205
N           0.21067041618409   -0.72659713823280    2.02831462800646
H          -0.55450667180130   -1.50629484121526    0.95497707779725
H           1.17280959459809   -0.60484970514325    1.73122309265928
H          -0.20212618966686    0.20977422682423    2.11017947412341
H           0.21711202720112   -1.14525799378336    2.94932235838010
