    26
        -50.44651595  Gyration_radius:  2.56313007909 Dipole_moment: 5.420
 S          -2.04152795628231    0.62949897692594   -1.26905352481356
O          -1.89834155316022    1.75102437400445   -0.21367066768369
O          -2.72273289034864    1.14880064018531   -2.39596456713661
O          -0.55371147474579    0.30040909449037   -1.62208361699099
O          -2.56898834022634   -0.55901915299422   -0.65331071504463
H          -1.80834794295563   -1.32747219076768    0.53374456005068
H          -0.08323147058683    1.18799153212170   -1.68035121262574
O           1.84778228875508    1.35258339164346    0.70946215495516
H           2.66379021230283    1.51497459500665    1.18355678834419
O          -1.36236370376952   -1.66946614021368    1.35108072918916
H          -2.06833317618755   -1.97414156190796    1.92443104748885
O           0.56800202081715    2.58283037582899   -1.33056546783815
H           1.12610386196069    2.30275283715508   -0.57472179181650
H          -0.18702972761093    3.05039302209069   -0.95918487886300
O           0.92928648563861   -3.12235861357898    0.83134266932622
H           0.13012468250256   -2.62555052165175    1.07879176133115
H           0.62505256357423   -3.92905422384888    0.41274842414986
O          -0.59190717501624    0.88947299458129    1.76010930851034
H           0.33505942496465    1.04982471294859    1.48546627798363
H          -1.42276745381378    1.40865291669843    0.63721635330624
H          -0.73295011041551   -0.07817576688150    1.74556444416890
N           2.00424788193335   -0.86421543454869   -0.63707515224417
H           2.81317654716034   -1.04997597404239   -1.21560010292514
H           1.83368834271222   -1.68500536634167   -0.05630448397264
H           1.96731535600526    0.47374930317091    0.20025740671467
H           1.19860332679221   -0.75852382007149   -1.24588575357357
