    26
        -50.45524939  Gyration_radius:  2.4285971863 Dipole_moment: 5.983
 S          -0.94632238641532    1.67486791591115   -0.60612094491732
O          -0.20611209367796    1.65058157897022    0.64031426372796
O          -2.14824287582999    2.43178816731845   -0.57189503115934
O          -0.01672918546758    2.17567726552775   -1.72597358268807
O          -1.20690194553027    0.22471396887727   -1.05121084371289
H          -1.51865920266417   -0.38115198721028   -0.23753358031334
H           0.78344809583208    1.57106643576310   -1.70892158759124
O          -1.82667084026326   -1.13543645532080    0.92955352846811
H          -2.13892673074961   -0.41607192995710    1.52562308609943
O           1.96405180762694    0.50200582244474   -1.70185405209961
H           2.40689247599866    0.54601000483196   -2.55140545143992
O          -2.43081744255287    1.20295486388309    2.04807682975829
H          -1.54594772283241    1.52140507340979    1.80277422283238
H          -3.02948209748308    1.69411460638511    1.47734693233263
O           2.08156439868778    0.38284807413043    1.12719103226848
H           2.43160108692153    0.41012156189460    0.22871385638576
H           1.30028051931406    0.96687743020126    1.09659957055685
O           0.70613280979370   -1.82348315540515    1.53940505683839
H          -0.93921888187457   -1.42186220674656    1.24530305411823
H           1.26211447599599   -1.00698160608093    1.42176739351998
H           0.88383641006040   -2.13899792009965    2.42662067817747
N           0.81937466143063   -1.84712529239267   -1.48389623832272
H           0.84140166446742   -2.10341383675552   -0.50114401592163
H          -0.13915172813723   -1.59932158769450   -1.70288389292947
H           1.53739035180905   -0.41942488381631   -1.63927340880657
H           1.07509439622018   -2.66176192759483   -2.02717686564662
