    26
        -50.47142886  Gyration_radius:  2.45708527695 Dipole_moment: 3.750
 S          -1.30456777666080   -0.03606632114324    1.05408704004293
O          -0.04112669149077   -0.78151208877370    1.15634585509051
O          -1.27528229002869    1.18525317885819    1.81402464047897
O          -1.60810989053177    0.21026578605962   -0.36112621686994
O          -2.43101837360240   -0.95193978334280    1.61392374647470
H          -2.28785098043329   -1.80554334391076    1.15019766857366
H          -0.94390755793942    1.74517085919967   -0.65098685766395
O          -0.31246016068861    2.49437093434974   -0.62954385168530
H          -0.48845131915735    2.94143543042039    0.20353657533289
O           2.04179319837279   -0.92585497488086   -2.09829898604853
H           2.45822895653972   -1.77063579062080   -1.92007448364391
O          -1.31982078749813   -2.90696605270620    0.20834219876066
H          -0.58907712780506   -2.40385697030676    0.60615078462452
H          -1.25735378187399   -2.72532528878139   -0.73883656663624
O           1.21817040411002    2.09540299663982    2.26354399945030
H           0.30841590337044    1.75366715108891    2.15610570402185
H           1.26897611959389    2.39677218072407    3.17150922251640
O          -0.61653022853216   -1.40223153676037   -2.12457905925526
H          -1.05356201823609   -1.18718187111308   -2.95061326059743
H           1.07819876651280   -1.10920638218299   -2.17116962371918
H          -0.98853271782230   -0.76932170034715   -1.45489650645695
N           1.66316850785622    0.79537546445364   -0.07019591554243
H           2.36542698879453    1.19750914799030    0.54617274488940
H           1.01241322150487    1.56557453879509   -0.38727427427943
H           2.03975193439323    0.26226749183556   -0.88333136979532
H           1.06310771109829    0.13257695430023    0.49698678230622
