    26
        -50.45767643  Gyration_radius:  2.39165734721 Dipole_moment: 6.704
 S          -1.41703369208484    0.85247501443033    1.09317161616632
O          -0.68876598159425    0.21521865268676    2.20909681466975
O          -2.53366017701340    1.63993159599099    1.47386861718214
O          -0.37659166831343    1.83350886420561    0.41483956952556
O          -1.70523928395125   -0.17392031769005    0.07893782263118
H          -1.15712108826216   -1.53000358815267   -0.52484132923319
H           0.40093164428313    1.32149540103347    0.10082435090779
O          -0.69208620203469   -2.35417788768275   -0.83323841490392
H          -1.37402460414991   -3.02034343108438   -0.92771994745190
O           1.66786337544002    0.46256404357010   -0.62361088081878
H           2.39184037919531    1.03573988682320   -0.87632755054148
O           1.87850985126189    1.06907596335254    2.31600524696372
H           0.93100085600408    0.89154596155698    2.44887685739987
H           1.98817689249443    2.01076251323564    2.45118111271608
O          -1.68809832278088    1.22938628883276   -2.14730664522810
H          -1.86566216467312    0.72834865958310   -1.32385843644640
H          -1.53581996075901    2.13319673255799   -1.86451229622784
O           0.36497455622764   -0.42251965929485   -2.64979011726739
H           1.23071218067928    0.12910289697194   -1.47193256750322
H           0.00755050334073   -1.24690403199319   -2.29053082288208
H          -0.39085632797837    0.20756377432565   -2.65811781068967
N           0.92929954072073   -1.43699492323719    1.12555094729887
H           1.50100213909633   -0.74773223283354    0.59808391860735
H           1.50275506711830   -1.94797363273817    1.78788919340978
H           0.19027052605420   -0.82918662445770    1.64779449143952
H           0.44007198167983   -2.05015991999309    0.44566626027492
