    26
        -50.46052547  Gyration_radius:  2.47328559684 Dipole_moment: 8.486
 S          -1.90369740963749   -0.00283588094998   -1.22506250484344
O          -2.87736642624750    0.96564177442262   -0.81259970717912
O          -0.57772961811613    0.57074511122046   -1.51438739681796
O          -1.77402253847508   -1.17695371448169   -0.38921101846794
O          -2.41308698211880   -0.54041546303861   -2.64357048991010
H          -3.10601033330453    0.08013567194559   -2.84579773703833
H          -0.64224041177840   -2.05648797131164    0.23641010505093
O           0.15683108915410   -2.55809660311173    0.55977382701587
H          -0.12570596266033   -3.46808469548929    0.65856925789448
O           2.43676829158043    0.76372611537366    0.95190658727419
H           3.20934516618785    0.88863874656403    1.50322555418641
O          -1.34101446662154    1.32778694694833    1.38592370978936
H          -0.77000609154020    2.03009542683217    1.02159999292725
H          -2.02570235101359    1.18020760733326    0.71765575222382
O           0.54254877343811    2.65541469898807   -0.10603369947035
H           1.30954228989165    2.17932209793500    0.23876580652038
H           0.13737834413174    2.07031092966972   -0.76498045592164
O           0.52960817493141   -0.32995119508526    2.29136300562868
H          -0.24311200455710    0.24273272956459    2.07613702367538
H           0.34219865911024   -1.18657742973959    1.88512064785037
H           1.71380106820945    0.39428446412056    1.55417857270092
N           1.51191891850338   -0.82260221526738   -0.97200341984809
H           2.05327527668855   -1.07759886822460   -1.79006022254419
H           0.62916357207211   -0.25843746634487   -1.25369888490171
H           1.17085525046863   -1.65553948596950   -0.44973800701379
H           2.05645971171096   -0.21546133190383   -0.31348628877866
