    26
        -50.44479921  Gyration_radius:  2.47152205906 Dipole_moment: 5.996
 S          -0.03721442010569    0.76095656401245   -1.86620169217881
O           0.41783241427771    1.82208954372634   -1.00843892462766
O          -0.33656246465186    1.08553130754612   -3.21012349141506
O           0.96975687610731   -0.40337174224177   -1.76837987218636
O          -1.33452706498221    0.13967062084665   -1.23278371661986
H          -1.10917963799229   -0.53624748148125   -0.52604525946256
H           1.53100611599311   -0.19446548501844   -0.92560761366950
O          -0.83704439033203   -1.68986682203222    0.51518796429757
H          -1.52951131573941   -2.34983957961169    0.45099791623713
O           2.25811901059296    0.21052357967334    0.30133075332891
H           2.32293911723611    1.15837998151345    0.14703135180941
O          -3.03865584417321    1.93557994244944    0.08088995706326
H          -3.25673594764930    2.67150846465548   -0.49381339704044
H          -2.59689791420962    1.27419906441642   -0.47109388398642
O          -0.65122424762942    2.34285834489530    1.43483594165394
H          -1.59679014612396    2.26266973279109    1.22782036731641
H          -0.20726260550311    2.35161623299054    0.57012398516086
O           0.50525523863194    0.08561714126595    2.20070542852314
H           0.07100422047638    0.96671191188343    2.09066753763491
H          -0.13902851373107   -0.56334305660394    1.89212386848779
H           1.63712058273906    0.12486974467615    1.09406180400082
N           1.47855093350109   -2.77764741677588   -0.11006131961449
H           0.03644502051601   -2.14360105567463    0.28163146649251
H           2.16106374980776   -2.20810979469497    0.37731983480894
H           1.70731401051654   -3.75119560133556    0.04642562907433
H           1.57422721242212   -2.57509415186925   -1.09860464508192
