    26
        -50.46282431  Gyration_radius:  2.47233520446 Dipole_moment: 6.206
 S          -0.49918475601956    1.75934507023815   -0.59592889539325
O           0.79166815914754    1.18270261646167   -0.18755983272887
O          -0.41757535292678    2.62105449784060   -1.72710903350264
O          -1.47818356373816    0.66368218883797   -0.75136665177514
O          -0.98978410468921    2.58956478195447    0.64720273162859
H          -0.89778198324518    1.98480367354508    1.40760073072783
H          -0.74345397860706    0.17043574091050   -2.24681961238689
O          -0.90604488892251    0.73445896992417    2.64166274928545
H          -1.57272112779619    0.97186301914077    3.28901336781731
O          -0.05423462181828    0.10906516382257   -2.93036162280575
H           0.21554142737870    1.02624239478405   -3.04798058495997
O           1.87967783948995    0.12645754159886    2.19114176980606
H           1.85919071149954    0.74787861894666    1.45048848127299
H           1.07728275159109    0.32461049569464    2.68728450800656
O           1.49181919675491   -2.00837577946028   -2.36001847036480
H           2.35401716534888   -1.82050854521909   -2.73411863283224
H           0.89934560498954   -1.28852895280750   -2.67663970457667
O          -1.76258284586308   -1.19090128408740    0.95200996850965
H          -1.70360013261146   -0.46361396992426    0.25576871385625
H          -2.63270076235315   -1.57888249578214    0.84956002344104
H          -1.24768201541363   -0.03908215087950    2.14514264453526
N           0.87299577676266   -1.36992599409349    0.15247205833946
H           1.52469075168532   -1.41927228562771    0.94294660966903
H          -0.06331631914114   -1.68533983452859    0.43446516782222
H           0.80017145289229   -0.31485792369633   -0.06393771075074
H           1.20244562562143   -1.83287555765823   -0.72491879254839
