    26
        -50.46282431  Gyration_radius:  2.47234245824 Dipole_moment: 6.205
 S          -1.14065960605180   -1.20634954986866    0.97132631089854
O          -0.88618686250386   -1.02825969164815   -0.46710298553779
O          -1.23828071554228   -2.56767913198700    1.37877152994126
O          -0.13816639523439   -0.42862319358774    1.72844721621498
O          -2.51672652546101   -0.49127113108721    1.23663870957066
H          -2.42998160255661    0.38698770727782    0.82006256338085
H           1.09479958706187   -1.59890685734513    1.36884166300968
O          -2.06453176058099    2.00486205050828    0.24108491884317
H          -2.61733724885847    2.61813157959731    0.72911846711325
O           1.52080069373130   -2.33916958545456    0.90346731362520
H           0.81913228098964   -2.99741434377877    0.85694853928680
O           2.97222599656395   -1.32570773030013   -1.11284462040991
H           3.01891243680135   -2.01074618990883   -1.78155936782937
H           2.54648021897812   -1.74383274124432   -0.32966124439658
O          -1.31433892565073    1.01468720684021   -2.36473710130451
H          -1.75108379788090    1.57572363260236   -1.71378259496367
H          -1.42612377163764    0.11889735309568   -2.01791673870755
O           0.47456926154526    1.96391022511509    1.16111049359807
H           0.85653371676830    2.38075395748633    1.93472424940587
H          -1.14462895501812    2.13074769245276    0.55660319457352
H           0.24999280354391    1.02132424887576    1.44096030506361
N           1.05857283327669    0.52930262297921   -1.12319289685505
H           1.92707413849730   -0.03311746572656   -1.27160771973299
H           0.29667722965762   -0.16070164387780   -0.79364526849728
H           1.16885030294771    1.23301845748387   -0.38269886214238
H           0.66342466655769    0.95343254134408   -1.96935605413944
