    26
        -50.46365324  Gyration_radius:  2.41779884638 Dipole_moment: 9.111
 S           1.50438725109082   -1.27417817197232    0.21889350386575
O           0.30974034589700   -1.06768681388525    1.03674827879373
O           1.93713103760087   -2.62477551558011    0.11448814100864
O           1.30450404407430   -0.63393918280841   -1.11055195150372
O           2.63316871360940   -0.41506550735950    0.90265065828138
H           2.24804028817796    0.47279543303768    1.01853509140702
H           0.41655310323281   -1.98057837145556   -1.77591010351349
O          -0.17989538283331   -2.74542968751028   -1.83064638074653
H           0.27577260059654   -3.42610140310357   -1.32673474493437
O          -2.32758431089859    0.99056997583958   -0.32693646690130
H          -3.18366038680065    1.16501507975104   -0.71907141006687
O           1.45582992271449    2.04621685686482    1.24727890850320
H           0.60089599558696    1.74179472867671    1.67815653294335
H           1.94823931696587    2.51680206359357    1.92147873638102
O          -0.78638204372311    1.07392256845111    2.09290246456152
H          -0.44539298220587    0.17542802459575    1.89387409002414
H          -1.51727376686561    1.19734992419068    1.47239916402246
O          -1.97254832072558   -1.55436686892182   -0.18954975846991
H          -2.23965863965518   -0.01745181281754   -0.29360172010538
H          -1.60559389699462   -2.03774028822751   -0.95476066960657
H          -1.20718541658193   -1.50612668728429    0.42004845515952
N           0.15365594002316    1.61453300540957   -1.11285722853379
H           0.64271910826402    0.61896199441576   -1.14991104141203
H          -0.85441538269600    1.46062524904014   -0.86536757130149
H           0.63687225712195    2.11970236225556   -0.35863113963712
H           0.25208060502327    2.08972304481096   -2.00292381822389
