    26
        -50.46282427  Gyration_radius:  2.4722778218 Dipole_moment: 6.206
 S          -1.45448215403960   -1.24664370160250    0.17324619263351
O          -0.68146735805578   -0.78449464171340   -0.99050909353901
O          -1.73707394646637   -2.64260332218388    0.16465932793265
O          -0.77943656913583   -0.78319041632955    1.40305434901746
O          -2.80898690441680   -0.44884595751150    0.10979990334368
H          -2.54777042044014    0.48317206728443   -0.01445240359235
H           0.46300868211122   -1.98334392975717    1.21724901158531
O           1.00830296434491   -2.64719651947799    0.76120116886103
H           0.35396982240672   -3.18963750939671    0.30794274482750
O          -1.94453628605223    2.13347706941393   -0.00223312218981
H          -2.61954730033191    2.68564942901755    0.39697628655029
O           3.13040313406666   -1.39192195854601   -0.29793244253331
H           3.39696310368537   -1.91038189174603   -1.05872117482353
H           2.43395830318105   -1.91969221669628    0.15572166747734
O          -0.31608664432423    1.66694601868140   -2.33937266253768
H          -0.94515780915752    2.11546739092134   -1.76277889939122
H          -0.57474003532165    0.73626320133923   -2.29279144587763
O           0.07174346660979    1.58406926927060    1.70916041124992
H          -1.20354234128736    2.07467419415233    0.63731704994903
H          -0.26875879954267    0.63692165781654    1.64538544160747
H           0.15314308809861    1.76850344729325    2.64591457757218
N           1.41341723979568    0.63579188657081   -0.50852244120316
H           0.56320927474943   -0.01369350350412   -0.65174192566714
H           1.37148520558289    1.28233994352530   -1.30371728190642
H           1.26415908351498    1.13800666035455    0.37530846937565
H           2.25782322043184    0.02036334281537   -0.48016369870928
