    26
        -50.45167168  Gyration_radius:  2.45344387448 Dipole_moment: 8.909
 S           1.92238160800337   -0.31698885761268   -1.34986373813359
O           1.25900645109476    0.97911372935217   -1.35666393532775
O           3.27400135010957   -0.33112907727906   -1.78289720511039
O           1.75087743469369   -0.92236004571586    0.01384315518270
O           1.08138654853634   -1.26828075506210   -2.29103307606353
H           0.13515819944771   -1.10074716337459   -2.11296451814913
H           1.59944897671017    0.45452114672812    0.87542737422623
O           1.33492520740096    1.26781157007075    1.37165303059940
H           1.64379990642042    1.98501982271616    0.81207862242822
O          -1.54588497029073   -0.88354366629139   -1.78004319743690
H          -2.07991655411000   -1.18497490011410   -2.51571006774570
O          -1.37291179879211    1.31258781015202    0.87724339526413
H          -1.73258413808836    1.57943916654003    1.72403117788478
H          -0.40020634190770    1.35894664126893    0.96652937476589
O          -0.20868346995572   -0.22672732739141    3.09249824930010
H           0.31873746552973   -0.73468033201177    3.71079977217825
H           0.39868261507743    0.41334228536038    2.68361600305661
O          -1.23457840505326    1.65137474756061   -1.83375917083218
H          -1.49169161403056    1.82840204353589   -0.91580929472976
H          -0.25571332924342    1.55773448401038   -1.79553682502021
H          -1.51043138498341    0.12931751936621   -1.85180868774107
N          -0.60976813688031   -1.52572594672615    0.70237100817369
H           0.43154410618929   -1.32137225859485    0.37218488384800
H          -0.74590619947104   -2.52158713115982    0.83820294608027
H          -0.73438615622074   -1.00337218087734    1.59258999961275
H          -1.22728735018693   -1.17612132445487   -0.04697926630979
