    26
        -50.45167172  Gyration_radius:  2.45352051162 Dipole_moment: 8.910
 S           1.28100418183314    1.09391724085883    1.66798660271341
O          -0.04866426790643    1.59766192639338    1.35452455742047
O           1.80788767308998    1.46167171339473    2.93356233006660
O           1.27866012909714   -0.39321923360638    1.45806498237610
O           2.25243062427230    1.63001837625418    0.54234228204364
H           1.78886204535989    1.54728017155486   -0.31406451239427
H          -0.30519616417858   -0.67616941480649    1.72582499240408
O          -1.28223925721237   -0.82780370124761    1.71433337875845
H          -1.63744395920033   -0.04764805022156    2.14808334131994
O           1.03151107928889    1.35483225981407   -1.85441600998461
H           1.42844128533114    1.93626142081397   -2.50376402025592
O          -0.97891127634385   -2.94978765770717   -0.01318148167191
H          -1.24264694635163   -2.34456472475433    0.70088475117701
H          -0.61159499794085   -3.72328678787979    0.41727638393803
O          -1.85372802846809   -0.29625693129818   -0.92526272144349
H          -2.49655760622438   -0.97380646027345   -1.13830031471951
H          -1.67215712075316   -0.38296455483703    0.03173970553095
O          -1.13095570494603    2.34221791177401   -0.91964436100855
H          -0.80373798901061    2.25137377497213    0.00399428365676
H           0.16228784482477    1.79798437927136   -1.57084354030434
H          -1.69134010705612    1.56185847118062   -1.05039796961606
N           0.94669625616669   -1.20711547715987   -0.91638903248063
H           0.74493531149529   -0.36884841702393   -1.48356158529530
H           0.12315165080335   -1.83633321559526   -0.83469732293788
H           1.75128244219881   -1.70079433975023   -1.28742874487524
H           1.15802290182975   -0.84647869011969    0.11333404557912
