    26
        -50.44589560  Gyration_radius:  2.58326486165 Dipole_moment: 10.073
 S           1.92048723567913    0.65825420741311    1.99592781562396
O           1.49443565285173   -0.70283545306014    2.36846161126338
O           3.24629363835840    0.99159015071177    2.38649694585391
O           1.87164602911569    0.62152134401736    0.36447239945562
O           0.89474408943715    1.64099011838494    2.31629419934953
H          -0.44939846694375    1.60759857271014    1.60760688604255
H           1.93040920070090   -0.29554694079007    0.07860596607539
O          -0.33743178901518   -0.06503497292981   -2.71231392975340
H          -0.10442690294027    0.18629046365311   -3.60670869283137
O          -1.33765007587871    1.50457954892336    1.13137916909233
H          -1.96511344937803    2.01156136117089    1.64760417355073
O          -2.22217667301334   -1.43940700975342   -1.16007030599843
H          -1.64997706776726   -0.95493637010048   -1.77480904941895
H          -3.09962877190998   -1.42027987125682   -1.54249114792270
O           1.02314121971439   -1.65773668837325   -1.02491003575530
H           1.27296562698509   -2.49060750763733   -1.42634996885418
H           0.61018157866427   -1.11049316176301   -1.72720955125814
O           0.04467802373817    1.98334954186566   -1.17390603954063
H           0.86309974898487    1.72919023587274   -0.71646582563349
H          -0.22832275830642    0.76449351628003   -2.15580272146292
H          -0.62671501802591    1.97361287967898   -0.46967965847156
N          -0.65579506973322   -1.11948627834140    1.12172363575132
H          -1.30480969155141   -1.80579107229793    1.49032471835296
H          -1.12445096927651   -0.19782904358103    1.01873430477255
H           0.23697503891363   -0.97971637123155    1.75908737546837
H          -0.30316038940317   -1.43333121956766    0.20399773624457
