    26
        -50.45004741  Gyration_radius:  2.53821719504 Dipole_moment: 6.002
 S          -0.32830311419051   -2.25765747295871   -1.28962904697393
O          -0.63990622597518   -1.67022097944778   -0.00487968239734
O          -0.74364790471940   -3.58870083759581   -1.51781574783074
O          -0.90175526573962   -1.33497368941223   -2.39696065395451
O           1.20706267010053   -2.16586598354671   -1.49783069673573
H           1.57405118854551   -1.33701667057294   -1.07799468701219
H          -1.07243957734306   -0.40462675766502   -2.07460409109679
O          -1.37587601138583    1.12389173085263   -1.73661465402757
H          -1.48722926003253    1.60188909886172   -2.55996236632003
O           2.26700844231829   -0.11861375653133   -0.31058083715618
H           3.21496163763618   -0.25828088865350   -0.28762537575975
O          -0.51897316365035    1.83242800478778    1.99442550660623
H          -1.23212183195928    1.25328489264187    1.61375767199325
H          -0.96679511744068    2.57378433122036    2.40342671863126
O          -2.29955699223509    0.31456757624410    0.77030136901217
H          -1.80657965534739   -0.51127550030205    0.61673230577076
H          -2.35489212160966    0.72114619123969   -0.10427429601474
O           0.64365291715088    2.10343622387658   -0.45630790848181
H           0.31982287838628    2.10203508112298    0.46748629897554
H           1.32186142482933    1.40999787778557   -0.49438602697932
H          -0.58180878595158    1.53523716520100   -1.27112687704368
N           1.15789782793841   -0.60248024722902    1.96457294970727
H           0.72874958958379    0.25212430541158    2.30673533240999
H           1.55196090861495   -1.10328899129635    2.74954071498677
H           0.41598822899979   -1.16815652826575    1.55648324558376
H           1.90686729347532   -0.30266417577455    0.63713086410525
