    26
        -50.47087148  Gyration_radius:  2.47166921673 Dipole_moment: 5.614
 S           0.08247366023351    1.60269772066894    0.38950771050423
O           1.28440513724359    0.90515213145040   -0.08784667921575
O          -0.97839265033104    1.61285048578512   -0.58717443693241
O          -0.32752286304556    1.01978001032666    1.67202792052930
O           0.48459667870110    3.09151522276217    0.64387504300774
H           1.16728331919606    3.04624225396356    1.33906032898342
H          -1.82537348951397    0.20250197124735    1.31491700084196
O          -2.47020764817933   -0.18029154317260    0.68558451806622
H          -2.43415788152126    0.46594644603169   -0.03654349980388
O          -0.35151113822528   -1.88663767941329   -2.69506399230238
H           0.37936216599414   -2.37635584667233   -3.07531768491772
O           1.08620005852002   -1.34885829941703    1.21738484587248
H           1.29324434430459   -0.55924589099888    0.66105131110032
H           0.69279709009144   -0.96974260368631    2.01074882674200
O           2.06345434060207    1.94240497025443    2.45312894622708
H           2.57507831107809    1.44911783445753    1.80446885655056
H           1.19638508265921    1.50439263335706    2.49723757958988
O           0.46047637929490    0.59894163904470   -2.60793642161423
H           1.04228264731034    0.64601131732492   -1.82782371709319
H          -0.08284294244234   -0.92629818993390   -2.73819615753961
H          -0.30289775085531    1.11883048765968   -2.31609726963328
N          -1.01556388582768   -2.21680648441090   -0.14615720476182
H          -1.70990343617805   -1.45629730968192    0.13717784376339
H          -0.79864027374815   -2.13439119958051   -1.17797884811560
H          -0.12913679174486   -2.01422447244882    0.39824170749606
H          -1.38188846368012   -3.13723559495955    0.07172350266395
