    26
        -50.45231389  Gyration_radius:  2.52459987309 Dipole_moment: 7.569
 S           0.36357369656834   -0.55272755859488   -2.41071587449261
O          -0.97264395918623    0.04953542753518   -2.23955606919691
O           0.98616486678609   -0.25175696149061   -3.65415592145007
O           1.22960381753519    0.14030450208805   -1.23418726768011
O           0.35881506884884   -1.95586123652693   -2.01646375668930
H           0.12718608930256   -2.37427468032969   -0.57375173546738
H           0.89046355952276    1.04772441271447   -1.12904296107415
O          -0.12552259958296   -2.61353747064870    0.37914789827420
H          -0.11790679712675   -3.57101346427544    0.40929483886695
O           0.94190856727420    1.40587631263832    2.16217400733253
H           1.41002738210976    1.60554884200042    2.97330278646608
O           0.57873052555297    2.57648159595944   -0.29650434968187
H           0.84195566112800    2.28164833239113    0.59660770174934
H           1.24386086390157    3.19606925841999   -0.59953170559607
O          -1.64626907361780    1.54001345041528    1.28067914571269
H          -1.43182340802475    2.11656883431611    0.53860087627249
H          -0.81610145593203    1.46428944715277    1.78413842739190
O           1.81198906410840   -0.86660667461174    1.22425798338311
H           1.15651646687582   -1.58320391505788    1.17611975467627
H           1.89996199891295   -0.57640166175628    0.30066012573585
H           1.27468362337804    0.51298326472294    1.86000292045403
N          -2.02381218669889   -0.73438222362140   -0.08346988243459
H          -1.43573880712853   -1.51517156741337    0.26250008715172
H          -1.60063014389107   -0.41605641244366   -1.06229415932022
H          -2.98765827697603   -1.02588660475455   -0.19833744784954
H          -1.95733454365000    0.09983673118482    0.55052458748653
