    26
        -50.46047170  Gyration_radius:  2.3798396531 Dipole_moment: 7.201
 S           0.21441180576626   -0.71972327531494    1.85518500422742
O          -1.14723399643978   -0.73076237206006    2.33588259778429
O           1.26198739861219   -0.51861692111763    2.80754784253750
O           0.48620677452814   -1.85777865093941    0.95022635549928
O           0.29273697240224    0.55860529708320    0.87250489921774
H          -0.60818330564504    0.92726077973883    0.78005243537609
H          -0.10508199931121   -1.79663033543458   -0.44124704695423
O          -2.07114061600882    1.66240859002969    0.25942909671440
H          -2.53099560976248    2.00282474288573    1.02875147933236
O          -0.43793977990167   -1.69210689021457   -1.39141421403542
H          -0.39065132628229   -2.56756929748661   -1.77886242342654
O           0.13463331649522    2.58830662412389   -1.13370943503041
H          -0.75975042934459    2.33889523212591   -0.84348930804833
H           0.57080932663780    2.92272106973766   -0.34596912529687
O           2.72035887842503   -0.64772598395164    0.45095995850011
H           2.00895136109797   -1.30052107464436    0.64260784991563
H           2.74893887513299   -0.15364889614503    1.27903233230051
O          -2.65118898065661   -0.85026902382772    0.17219406691901
H          -2.19449496673855   -0.96276252095200    1.03852944563800
H          -2.44136975413784    0.74199733876900    0.11334802480183
H          -2.06589957608977   -1.23849266086781   -0.49312575305239
N           1.40499953026591    0.26631161288852   -1.65664720508211
H           1.99925188817503    0.01494666031069   -0.80307242491579
H           0.92486304078303    1.18705927616285   -1.47939838026339
H           1.96874228410063    0.30014807617935   -2.49959605745662
H           0.66703888790293   -0.47487738711288   -1.71972001521282
