    26
        -50.45687624  Gyration_radius:  2.47759346805 Dipole_moment: 7.807
 S          -0.45739595160723   -1.70059025850960    1.76681282843963
O          -0.50472910204425   -2.65352781760661    0.68241435264706
O          -0.90109453454486   -2.15609863044929    3.04579069208095
O           1.11558351238741   -1.35810886215937    1.98896478467802
O          -1.02892580981289   -0.40986182592273    1.34908065432684
H          -1.85576506859788   -0.25009538712171    0.02043192775364
H           1.17651953626916   -1.77635181557228    2.83973828916867
O           1.46809461611539    0.27725885949904   -1.89575430106113
H           2.02294047355123    0.09799199105603   -2.65528818426279
O          -2.33505047533589   -0.01374176447610   -0.82634606377938
H          -3.26785036462150   -0.03732612145469   -0.60989829693955
O           0.14795665201624    1.93807527972161    1.35831755405271
H           1.09120943694269    1.66169986670116    1.26482808429831
H          -0.32961795942069    1.10021013597703    1.55874202292593
O           2.41850024178470    0.73605263649873    0.69238278080550
H           2.23729978549592    0.55772652090395   -0.24459353642973
H           2.17309103974095   -0.07292221449499    1.16327846535923
O          -0.21680011646296   -1.65304007606625   -1.69404499759827
H           0.86803131967545   -0.52841069366660   -1.79262163755718
H          -0.22833523923166   -2.11661506242916   -0.81893081496697
H          -1.08907814418692   -1.24217474565534   -1.74428954141541
N          -0.51001401935988    1.94583904502692   -1.11989357337820
H          -1.33353089875832    1.30523304004677   -1.13835755363169
H          -0.70559085024019    2.83021311233905   -1.57356881092459
H          -0.24597515640982    2.06735214893043   -0.05247330942965
H           0.29052706666503    1.45121261888967   -1.56472184512324
