    26
        -50.46088494  Gyration_radius:  2.48305083682 Dipole_moment: 6.383
 S          -1.54836836305908   -0.15126657734277   -0.49710180846673
O          -0.77428909351664    0.92309317526537    0.14458003212673
O          -2.34442038060812    0.27671075544708   -1.59488583919496
O          -0.64537646870493   -1.27180083010822   -0.81762895287404
O          -2.50884784860487   -0.69867259905296    0.62858250055261
H          -1.95225590985174   -0.81479328552741    1.41186137070709
H          -0.18329834884392   -0.65706171957582   -2.41454359825881
O           0.00165189156017   -0.00883254325221   -3.11305404350691
H          -0.85359086857903    0.40214399754312   -3.27450507907925
O           3.15994229276920   -0.00495228851875   -0.42933150458031
H           3.63427223500358   -0.30583384426876   -1.20633005044880
O          -2.21566113826783    1.77482737688649    2.32957290598008
H          -3.14985291853439    1.84178523797605    2.12745574819907
H          -1.75891348665326    1.72781116309568    1.47547123052416
O          -0.32337285293866   -0.37815439377965    2.34517170046312
H          -0.35355811591832    0.22691206010562    1.56830551380333
H          -0.67401344734081    0.15214943177519    3.06843239861874
O           1.35018896804259    1.57782225421030   -1.38942843960107
H           2.52391196718613    0.69974063157846   -0.76192878602063
H           1.01542571822541    1.12277998372809   -2.18879440417774
H           0.60305424369698    1.54014586286763   -0.76743038590718
N           1.41997784833860   -1.61536722034424    0.68629180743134
H           1.09391522039548   -1.24864788720316    1.59160851268555
H           1.71702303434937   -2.58161996547864    0.76941486607601
H           0.57139176523892   -1.53207509046363    0.02615481434464
H           2.19506405672656   -0.99684370562162    0.28205950057839
