    26
        -50.44342478  Gyration_radius:  2.53313138958 Dipole_moment: 5.427
 S           0.14035706772361    0.50885453497737    2.37285695781136
O          -1.20524371777183    0.94863805775400    2.11608989614892
O           0.52444722006488    0.30709043670544    3.71855766949681
O           0.36490452894782   -0.79315652800077    1.54654035729596
O           1.12778848807465    1.51592570337180    1.71039495689325
H           1.33358329160591    1.25807365335928    0.76389378840589
H          -0.35178776010188   -0.78709969370408    0.83460747993035
O           1.63323816601663    0.93371512369110   -0.75610365308224
H           2.25165994663995    1.56713411327999   -1.12453270587207
O          -1.46972472189939   -0.82448955832948   -0.24338717778442
H          -2.28981404634911   -1.03048082974716    0.20809713304678
O           1.93976951643395   -1.85955547206479   -0.57157082506411
H           1.95029270674222   -0.91627737529447   -0.79184476928730
H           1.71359064274013   -1.88498009310862    0.36383092679407
O          -1.15065879230117    3.08951032177656    0.54539779042455
H          -0.42266241140808    3.58339369014096    0.92705537760642
H          -1.31782162058506    2.34815316866555    1.16289824938143
O          -0.73131347794598    1.48794821420063   -1.55668045184196
H          -0.96688592211128    2.20054703423915   -0.92259105354287
H           0.72751115111279    1.14023398068459   -1.16732989052163
H          -1.19151237443543    0.69944168624501   -1.22823387878195
N          -0.52385287826082   -2.79475187076921   -1.64825225637725
H          -0.60582494255705   -2.70491623072922   -2.65274530509194
H          -1.19191164763019   -1.62575569962682   -0.81323769939558
H          -0.74185693678056   -3.75072229647693   -1.39860426361418
H           0.45372854405015   -2.61647408133101   -1.39510666315560
