    26
        -50.45777584  Gyration_radius:  2.47509500138 Dipole_moment: 6.825
 S          -0.49165839105231    0.46779468321760   -2.10425295585535
O          -1.20859433170899   -0.77422498747593   -1.76680528143103
O          -0.76347455516985    0.99797532901745   -3.39268275822059
O          -0.67949971617906    1.43696831421509   -1.00512302078453
O           1.04518145995548    0.08758222103243   -2.06045784531995
H           1.16686537426796   -0.43902739024269   -1.24670654603462
H          -0.98445949302477    1.42412442266379    0.51960048553755
O          -1.18305626746511    1.33170347211702    1.49696060701350
H          -1.62330140254546    2.14407400465781    1.75041650097963
O           1.62240047304554   -1.18591179794486    0.23160920144516
H           2.54424387352268   -1.43947350394104    0.15792095178945
O          -0.17465141364347   -2.99069517829810    1.09095927786755
H           0.55133382721659   -2.37742260275793    0.84414956205327
H          -0.21401596855936   -3.64712709838277    0.39269705210428
O           1.69519734532379    2.52100092364928   -0.64131471360234
H           0.77325891231537    2.25784566231930   -0.85366527283139
H           2.21902517484965    2.20228022821310   -1.37938031509531
O           1.58705500372083    1.00364466510190    1.56341875687940
H           1.61416910245588   -0.35506371504437    0.81443124610381
H           1.76818938579629    1.65276661985031    0.84485008021510
H           0.65722303821806    1.14655713330865    1.79993862511747
N          -2.00990228541761   -1.09634223919658    0.61521215862918
H          -2.99329968324091   -1.33709455234248    0.66090514974941
H          -1.40574657106579   -1.88187172187198    0.95518013473653
H          -1.70361237135021   -0.92115867450639   -0.43475625096628
H          -1.80887052025248   -0.22890422736133    1.14689514989194
