    26
        -50.45777566  Gyration_radius:  2.4749984676 Dipole_moment: 6.834
 S          -2.15199389266311   -0.41745420539070   -0.28810968108678
O          -1.65802113862900    0.15949850756152   -1.55042606241281
O          -3.50169590659031   -0.85684966098450   -0.30540701880191
O          -1.19315857814855   -1.44323726373887    0.17135700933781
O          -2.04558461598840    0.75191302483044    0.77495673601656
H          -1.16805200527805    1.15853817590729    0.63729196340854
H           0.31685878367147   -1.77962755942607    0.01444577139839
O           1.29584908519542   -1.92838787879414   -0.13598106433688
H           1.43459400468712   -2.87045333277561   -0.03002211516559
O           0.40024815497016    1.85607551636956    0.69770261993363
H           0.36954729476392    2.58998159189858    1.31409392991086
O          -0.95598396793810   -1.04000085164358    2.76491448784742
H          -1.63885594959392   -0.39753516019545    2.96871432199811
H          -1.13952869356762   -1.31871065462564    1.84134292250548
O           1.47764187903864    2.22684212014081   -1.73696751354086
H           1.15611703584284    2.16033162613284   -0.81152393826455
H           0.87518464323589    2.82540210194581   -2.18302028429475
O           1.43010865947396   -0.11144663519528    1.97751497528219
H           0.63350730775850   -0.45930716195985    2.44090765533967
H           1.63736228194661   -0.77765708631593    1.30357579945571
H           0.86784836384255    1.10352390433808    1.19281760622794
N           0.73805886095964   -0.30106994264372   -2.23285503025598
H           1.18460161376712    0.64280617561150   -2.14778992903945
H           0.80708032020022   -0.66087806960571   -3.17779828962879
H           1.15142639887104   -0.96035178266288   -1.54725934937767
H          -0.32315992980888   -0.15194550870422   -1.95247549246869
