    26
        -50.45980633  Gyration_radius:  2.48332896232 Dipole_moment: 9.580
 S           0.02372829498460   -0.35423078583808   -2.36801792278870
O           0.99338572313711    0.55092862973830   -1.74124815021509
O          -0.18638467920999   -0.16356770947126   -3.76174920236636
O           0.74073224383891   -1.80760363707075   -2.22938977548329
O          -1.16989486586168   -0.47520177612418   -1.54322199450589
H          -0.95263402435898   -1.47333713628123   -0.34388263433874
H           0.80795025284385   -2.04348160163884   -3.14827986371399
O          -0.66535239806859   -2.07511358934454    0.39915280065222
H          -0.80754075418530   -2.96721151703353    0.08019705340592
O           0.97687533510600    1.09707904553987    2.24694503094448
H           1.20008951762353    1.37709824782972    3.13458251108299
O          -2.24008456502767    1.43243596622276    0.14113273480629
H          -2.07948586912994    0.78322333278540   -0.56043074539994
H          -1.50953930240110    2.07692711305730    0.05490874641515
O           0.19871751303135    2.61233120184592   -0.07482644047322
H           0.52203395356201    2.03220835883710   -0.78149678813806
H           0.58580902525274    2.28251080283309    0.74732164111556
O          -1.36987450634727    0.04422012205709    2.19536029595821
H          -1.29431680879878   -0.82462315341384    1.78254953745881
H           0.03249181839364    0.73582120361654    2.29155676378357
H          -1.83219837509495    0.60770800461172    1.51743559489498
N           1.63227816106826   -0.70414638184489    0.40618947973630
H           0.84853415278719   -1.39587414534013    0.48593104674844
H           1.44887620492173   -0.16379616440223   -0.50794848415636
H           1.55957182619318   -0.02216479865679    1.19966114132410
H           2.53623210563607   -1.16213962240098    0.37756762334550
