    26
        -50.44427718  Gyration_radius:  2.4972286061 Dipole_moment: 5.581
 S           0.94459291372882   -2.19532976718097   -0.64818434025551
O           0.62010221138743   -1.34490394700423   -1.76164973651890
O           1.97054180651521   -3.15440594839844   -0.83421929172478
O           1.27716399865928   -1.27365509712957    0.57722857362636
O          -0.34172389470149   -2.88933543016825   -0.14567977738634
H          -1.01053605741685   -2.15337142370829   -0.07719237142551
H           1.65605951812211   -0.39406142963290    0.28006867205272
O          -1.98770254759983   -0.91862822947330    0.21628895701490
H          -2.85809057048727   -1.25514626911200    0.43720298326275
O           2.24283494238300    1.00368233264923   -0.18805346373335
H           3.17485349409041    0.92805958225470   -0.39854274579531
O          -1.55319411678881    1.48405859170415   -1.04282771654611
H          -2.36299514450531    1.71729735890503   -1.49869944795618
H          -1.67167618206479    0.57858940765886   -0.69479403876741
O           0.07357581674293    2.26584004382186    1.16503673537486
H           0.94455216811097    1.99723668922002    0.84633890189984
H          -0.50983047693847    2.21752755168226    0.39548450030795
O           0.86562548067006    1.23194725753690   -2.35433195253090
H          -0.00350158570848    1.50494124548934   -2.01444976115731
H           1.76349854894292    1.17435812160122   -1.06100380974791
H           0.79870831459656    0.26197088336762   -2.42493159047285
N          -0.80065538343517   -0.14057060147806    2.35356427343666
H           0.03713936253778   -0.71115424251289    2.35403527234187
H          -1.55248194054580   -0.60285150210420    1.11029076423847
H          -1.20568836379812   -0.14981186317800    3.28002886282564
H          -0.51117230249623    0.81771669519686    2.12899152763046
