    26
        -50.45694961  Gyration_radius:  2.48248754365 Dipole_moment: 7.915
 S          -0.94650553627470   -2.04646985187457    0.54660592573195
O          -1.23674811652269   -1.85171982319368   -0.88246220761763
O          -1.30618359390929   -3.31220892034624    1.07899869542612
O           0.46161099684740   -1.67250152844759    0.80258134710010
O          -1.80083665210151   -0.94776854923855    1.30334115115678
H          -1.69563745160354   -0.13194875881043    0.77856690479861
H           1.55041255820947   -0.81028970541863    0.13269506099573
O          -1.41003100371925    1.47093408867398    0.19564295397258
H          -2.01708416185489    2.02077770511034    0.69372592904859
O           2.21046060682031   -0.22243638535640   -0.34441192522042
H           3.07335775909287   -0.57905827529956   -0.12912171187422
O           0.42860196038438   -0.25605126906869    3.02207432729900
H           0.49741089504075   -0.90740130722168    2.28941515512471
H          -0.46531926831025   -0.35621422505903    3.35608182994515
O          -0.67557741010052    1.98806204323325   -2.33409643267534
H          -0.06108947193651    2.71384588191804   -2.20824553007883
H          -1.10584347737322    1.83839539104506   -1.46527837459445
O           0.92350557804461    1.68426571356929    1.25213756019193
H          -0.49662951458229    1.60350765931208    0.61225688454208
H           0.80980813117336    1.10270453829384    2.03944554623919
H           1.52220715906088    1.19069126940611    0.66876446181685
N           0.36504821785487   -0.49959493560235   -2.30869531574626
H           0.54145907872121   -0.97696180211275   -3.18523622127023
H          -0.05610713324309    0.44371878523810   -2.46977778120888
H          -0.34116009458239   -1.09518172196258   -1.69653804787055
H           1.23086994486130   -0.39109599677955   -1.74847019524197
