    26
        -50.44620171  Gyration_radius:  2.53508926388 Dipole_moment: 5.809
 S          -0.81009864212561   -1.77923732431135    1.55862654400185
O          -1.75022833025094   -1.47757819757814    0.50505836264617
O          -0.89677465513643   -3.06016957111075    2.15102986515084
O           0.62372259975897   -1.52017850180411    0.97600084754522
O          -0.89289196781156   -0.70311657816852    2.65726239611724
H          -0.70957037095883    0.21570060422828    2.28829241222316
H           0.54557526015216   -1.72926494698420   -0.01341440311826
O          -0.24808491976374    1.65899478736442    1.84000711583553
H          -0.16883642906265    2.18585851201024    2.63794962091151
O          -0.04322407856101    0.52290145519241   -2.50533902850834
H          -0.36713440181043    0.80260999104067   -3.36195806121579
O           0.03121571643349   -1.96101870582381   -1.45025641938718
H           0.06655794115995   -1.10942111067985   -1.93695607625952
H          -0.87731151381500   -2.03241890745052   -1.12110409956775
O           2.46315015831132    0.76878726993054   -1.46432592245253
H           2.87122725539774   -0.05871331224571   -1.72548391344958
H           1.57793944349636    0.77817159894163   -1.87295652807907
O           2.11496439098288    0.82720890027279    1.20861590074415
H           2.32448460846908    0.94820367464363    0.25807756286310
H           0.69372599894149    1.43665378927117    1.56287248403667
H           1.90443010691172   -0.11119521337615    1.30432861631983
N          -1.77434678723954    1.13010582841412   -0.65091386728670
H          -1.95660940623463    0.20516338478139   -0.25908281652470
H          -2.66689727791339    1.55825350479442   -0.86119510191336
H          -1.33564568528047    1.66978998756414    0.08808383534945
H          -0.71933900405672    0.83390908109224   -1.81321930597850
