    26
        -50.45694968  Gyration_radius:  2.48238539579 Dipole_moment: 7.905
 S          -1.33749243342362   -1.05523178571173    1.57550300540734
O          -0.79719297558395   -2.13563649902670    0.73567100642566
O          -2.07717154881221   -1.47337731249906    2.71256091328121
O          -0.24750853691162   -0.10641128643861    1.89144081753841
O          -2.32083773799180   -0.24317421533490    0.63574967297068
H          -1.85264018687372   -0.15925334604513   -0.21615764161287
H           1.12842302139875    0.28151949745381    1.31297512034875
O          -1.10432843160543    0.37075577789465   -1.68252744926301
H          -1.80925024785569    0.79572864185608   -2.17386000624024
O           2.00817718134974    0.49812976026824    0.87958125750669
H           2.57240848502530    0.81101723486504    1.58797227640973
O          -1.27858807712687    2.29515883494150    1.57244294685742
H          -0.91244727894252    1.42742367425611    1.85310812833161
H          -2.21778654739417    2.13826571969361    1.45418289217770
O           0.92178862211333   -0.95312763176296   -2.84398869428080
H           0.08024598471146   -0.55445965352507   -2.53545214720937
H           1.46009045932511   -0.22796483157347   -3.16737928120936
O           0.31854146898694    2.19874817157778   -0.56799213649049
H           1.06869761773125    1.73626529228087   -0.16093513447450
H          -0.54337784172334    1.11458299353742   -1.28605441724911
H          -0.26732194214958    2.43400999591160    0.18858327815471
N           1.47070700950436   -1.84987643782212   -0.36094638825814
H           0.47958012626729   -1.98783966704706    0.11545435640789
H           1.32046600740599   -1.63406961531667   -1.37290319263920
H           1.91236562809035   -1.03061147815547    0.09614626956023
H           2.02445217449009   -2.69057184432459   -0.24317545245821
