    26
        -50.46956826  Gyration_radius:  2.48803583415 Dipole_moment: 4.378
 S           0.81859234560017   -1.55888534876206   -0.58180054276331
O           0.93007056653139   -1.63522721314463    0.87542365450017
O          -0.30359278103304   -2.26749653706109   -1.12128537371803
O           0.82368692816797   -0.14035470830058   -0.99275356654435
O           2.12649313140166   -2.17787099058072   -1.17930135673258
H           2.82537477321449   -1.68396586456574   -0.71654144307663
H          -0.51400711166895    0.40687580526339   -1.76547524320623
O          -0.98642014080959   -0.33761913359627    2.19505294353459
H          -0.29904030364878   -0.98985978942888    1.95661010186135
O          -1.36502200694397    0.77764841372825   -2.10501478457202
H          -1.45382001403815    0.45380917536116   -3.00246728215266
O          -1.62673115637480    2.88088367342121   -0.41922724326662
H          -1.56589113908108    2.26621218933554   -1.17543051533106
H          -2.50821459143825    2.77034615211853   -0.05691721184973
O           3.38752269412147   -0.82063494040062    0.77427381888433
H           2.46865877294027   -1.06732424918178    1.02061138734475
H           3.96713644222005   -1.35107245373414    1.32516344753736
O          -2.33456092314882   -0.85195804905020   -0.05131840371515
H          -1.69294377449254   -0.51063866841088    1.53385807352053
H          -2.28967165862599   -0.18372721899920   -0.75053808733428
H          -1.74677131340832   -1.55983225035745   -0.37177883377242
N           0.28427234771178    1.54599605074910    0.93764606297271
H          -0.39005389144218    2.21972316468735    0.50765077671979
H          -0.24946431106745    0.87736274748200    1.59688993218270
H           0.64366127409604    0.91964626704563    0.16323554948973
H           1.05073583122555    2.01796377638590    1.40343414949633
