    26
        -50.46935357  Gyration_radius:  2.40001680547 Dipole_moment: 3.541
 S           1.59177208437834   -0.63691504693003    0.64157949153243
O           1.38395972434539    0.81945490624379    0.55855175127023
O           2.22611574700540   -1.04556990356008    1.85382652134690
O           0.30287354325397   -1.32401519624912    0.42678258223145
O           2.48912430201081   -1.01823980535346   -0.57947775509717
H           1.98451740655804   -0.71720012807429   -1.36286827487763
H          -0.23512736270858   -1.49320055110715    2.04747912898004
O           0.95841927217585   -0.38033234187652   -2.70709608385114
H           1.21841559518924   -0.93444156191109   -3.44532743518833
O          -0.33599574179104   -1.18274604992272    2.96940389679284
H           0.57546333310312   -1.17389261634687    3.28522663044004
O           0.14405828023528    2.07254830026758   -1.46238562992091
H           0.41198024303139    1.55487904549510   -2.22823789400624
H           0.69816481912087    1.73360570715214   -0.73219894747120
O          -2.15105646416534    1.17886737311880   -0.41402956878171
H          -1.43460130902230    1.67396658906629   -0.87516295170198
H          -2.11483603232902    0.29544629770158   -0.81258801341738
O          -1.31611849070037   -1.23064136563279   -1.53942120309325
H          -0.71372096895154   -1.28270118656998   -0.74324498268859
H          -1.73241687125081   -2.09055014453230   -1.61278463354270
H           0.07075421323380   -0.68341105088827   -2.41522070083950
N          -0.82662457124295    1.19025416309241    1.85702004414245
H          -0.96293862588712    2.02846198490431    2.41134145131884
H          -1.51397618553769    1.15204155040525    1.03851439095135
H           0.13394829911715    1.17496233917774    1.39664857955372
H          -0.85215422910753    0.31936867233799    2.44366962585841
