    26
        -50.46935357  Gyration_radius:  2.40004603382 Dipole_moment: 3.543
 S           0.55849702012074   -1.55699110382205    0.78422291453043
O           1.38470699223122   -0.95219216707935   -0.27534713232203
O           1.32560493872168   -2.04198263907712    1.88663855256366
O          -0.47466982108535   -0.59014420900159    1.20524108716351
O          -0.21029891932923   -2.74056325003538    0.11352906170772
H          -0.71434777614844   -2.32760725611521   -0.61744071236964
H           0.32628066791170    0.17126112549224    2.51831866290213
O          -1.75138665822827   -1.52145715651363   -1.73482277966149
H          -2.52393044654990   -2.06701551212593   -1.89348373035608
O           1.11792197168211    0.53060456859888    2.96618685758389
H           1.64712116789587   -0.26162320844742    3.11756636735064
O           0.41732527790883    0.19394858173218   -2.49872311844129
H           0.87751302335997   -0.28635836297871   -1.78275640671932
H          -0.34745494118671   -0.35346707531849   -2.70304847793539
O          -0.24076310727288    2.28242942709129   -0.95892050534035
H          -1.07537140939142    1.91444349147241   -0.62931461615087
H           0.01563470325241    1.66856157318596   -1.68588615353764
O          -2.29302434257003    0.58311106022312   -0.14133920459406
H          -2.05473847219000   -0.72280850713052   -1.25000583881044
H          -1.58430853093027    0.15353126355677    0.41779567709626
H          -3.04631601994678    0.70900171881885    0.43734238082009
N           1.75148923461273    1.47425359965886    0.55414668521602
H           1.75754298106075    0.48215811909430    0.16600659710602
H           1.56957151292631    1.35461358680682    1.58162984147939
H           2.62782067469714    1.95193244640962    0.37441486820939
H           0.93958027847295    1.95235989544247    0.04804913239979
