    26
        -50.45433755  Gyration_radius:  2.45555629031 Dipole_moment: 7.265
 S          -1.31569481546178   -1.47004798994243    1.50226203874586
O          -0.71056391234638   -2.63156659700748    0.87414766957559
O          -1.99741281268475   -1.65917782197712    2.73444251795529
O          -0.07368774946900   -0.48829391385459    1.78347039918601
O          -2.12283889192850   -0.71267906975928    0.49950390925844
H          -1.81335034762091    0.82063062424162    0.13838052399666
H           0.60048421818936   -0.81473528469208    1.14932316160769
O          -1.59467438347491    1.72273816748544   -0.22077287417093
H          -2.42894610380086    2.19017724741119   -0.27613691601172
O           2.38117742463249    1.40429395983609   -0.33140830080028
H           3.13291253780652    1.99707108787612   -0.31965396493375
O           0.27458905917661    0.81966756535949   -2.04498531184422
H          -0.40972888127431    1.27875058358065   -1.52584881794990
H           1.11446449777297    1.04192200257071   -1.61293689859768
O           1.76484885869245   -1.20129946331948   -0.00650249695663
H           2.43252265730970   -1.72478562664707    0.43836196898521
H           2.14329519405215   -0.31492040014816   -0.17053651563716
O           0.56763206776253    2.14416645485943    1.39281905019118
H          -0.22256505552307    2.24580111639726    0.83250929618658
H           0.39922706996149    1.31929596370333    1.87523980781264
H           1.73768056415713    1.74682265473911    0.35567033427091
N          -0.75708495333527   -1.55641194751872   -1.46353194936940
H          -0.17851243503708   -0.72961394661905   -1.77716325289606
H          -1.52962014624215   -1.17536422105374   -0.81651849498333
H          -1.11916214252794   -2.08989638401814   -2.24559299394303
H          -0.27499151881373   -2.16254477150001   -0.76454190967076
