    26
        -50.45902658  Gyration_radius:  2.51125920843 Dipole_moment: 9.206
 S          -0.37375991812161    1.70397231091458   -0.81337449178684
O          -0.55298013363285    1.46636057009078    0.61772038869836
O          -0.90337754467722    2.96075345931416   -1.26209630836336
O           1.21281761854147    1.73826069921466   -1.02359850164662
O          -0.82327566719059    0.55240303330733   -1.59205733380065
H          -0.14772217361602   -0.83659506004175   -1.68624248141806
H           1.43237276954104    2.55452468578903   -0.52538253852533
O           1.08548889279299   -1.61104818457937    2.16745722717603
H           1.76401156436889   -2.14399060528944    2.58363835461882
O           0.21830420526145   -1.77268953859241   -1.70807892307602
H           0.15531280070530   -2.05012066438048   -2.62297465637886
O          -2.52294191114549   -0.16965325562216    0.45730625130400
H          -1.83812000281859    0.50307631369124    0.71707512505097
H          -2.58546215281966   -0.03481121324455   -0.49581341397360
O           0.86882585470653    3.83388368777507    0.51228501919934
H           0.14926870552400    3.95729413714120   -0.13175689828994
H           0.48353724374038    3.26151802583296    1.18681200598833
O           2.15052049162614   -0.65037417070042   -0.04314114147192
H           1.53188910151014   -1.12071122037047    1.43075944796566
H           1.71191021612103   -1.19986216336232   -0.70904039245882
H           1.91753690661188    0.25965514228360   -0.28988525261839
N          -0.99398049703634   -2.27096382405939    0.65279168477913
H          -0.23870524097844   -2.06769278698195    1.35934431762233
H          -1.46871502280999   -3.14261513024162    0.85926610676029
H          -1.68368073824877   -1.43723631930261    0.64832831595715
H          -0.54907536792847   -2.28333794825491   -0.28934192158262
