    26
        -50.45346799  Gyration_radius:  2.74458454576 Dipole_moment: 6.024
 S          -0.10351172261861   -1.52206654004376   -2.52982847878862
O           0.14137249148160   -2.47310074556204   -1.44014701022293
O          -1.47998117629453   -1.40072635301277   -2.90386266292888
O           0.51174390508443   -0.22657204010749   -2.20218957471625
O           0.69797359150486   -2.08940005953487   -3.77693227934635
H           1.56096375152396   -2.29044947492034   -3.42509994365213
H          -0.89283366076002    0.56758863678340   -1.69662174063629
O          -1.74668382271983    0.71272012591375   -1.22887014388166
H          -2.37295692936964    0.24834301492741   -1.79545488395575
O           1.53640618903781    0.73308908146219    0.07317702957158
H           1.39656354811437    0.44474223893391   -0.85082940153367
O           1.91058003975713    0.43485211023498    2.75706306968143
H           2.01724811083661    0.46903289595218    1.79019579333679
H           2.45233885194786    1.14265899203753    3.10946924114967
O          -0.78911237477563    0.59264404321661    2.83780904505335
H          -1.09753149210250    0.93739540464060    3.67621184533465
H           0.18536939017178    0.50393855365244    2.91516269154689
O          -0.49521211766626    2.36272856724063    0.67817507227977
H           0.95517570158955    1.51999413059973    0.19148400782889
H          -1.11118536809128    2.11909496059424   -0.02421184475265
H          -0.76265769898816    1.85003509653584    1.45964544505142
N          -0.51977934486977   -0.94770969967568    0.51179922897416
H          -0.29146380039883   -1.74224756112443   -0.17087425540904
H          -1.22851429730912   -0.34487006824075    0.03657750914798
H          -0.82967022055218   -1.23320784654103    1.43664212946101
H           0.35535843546378   -0.36850746391405    0.57151012138807
