    26
        -50.45844613  Gyration_radius:  2.42740862899 Dipole_moment: 7.638
 S           0.42142385892026   -0.65346129893856   -1.84844157087444
O          -0.09470215923505    0.63606248474076   -2.36241409233610
O           1.62131465894958   -1.08605473263558   -2.48743694463711
O           0.50877014037639   -0.58022445651059   -0.39120378559881
O          -0.72930559420505   -1.70822595891975   -2.11094055376471
H          -1.34316330132087   -1.55331277134491   -1.37311094546489
H           1.21917048373882   -0.73949520418095    0.99568113703936
O          -2.29957574574383   -1.09099325841417    0.10095165631446
H          -3.07122920566068   -1.66050905355871    0.11699016164140
O           1.51442983380267   -0.75582049253016    1.94242640336995
H           2.29626166872768   -1.30930359699009    1.96489108694075
O           0.99972396565467    1.92035559810619    1.06060118698948
H           1.56002633169101    1.88617973864767    0.25562928201461
H           1.22962848135698    1.12334779204081    1.55980257590802
O           2.23584855442830    1.53066507021956   -1.34536171609828
H           2.72592919825316    0.72173858212362   -1.51870992567851
H           1.43521511052985    1.43105533254070   -1.88632673636825
O          -1.02350221438400   -1.61010375730615    2.38412251538108
H          -1.75042592616242   -1.34958175122563    0.88279608511029
H          -0.07663358837913   -1.38925563551558    2.26092062173981
H          -1.31751076937943   -1.09379528735595    3.13676361149291
N          -1.24573317981894    1.48954023863889   -0.24857825749076
H          -0.81705797306477    1.22042054831022   -1.20874229106444
H          -1.85082898026131    2.30057973075845   -0.31549173521942
H          -1.75325388903024    0.64985180385509    0.05563778153121
H          -0.39481973978616    1.67034034544172    0.37954445912200
