    26
        -50.46232558  Gyration_radius:  2.48778767405 Dipole_moment: 3.595
 S          -1.61307600286847    0.83802256365177   -1.24492789709354
O          -0.40325076852305    0.86735549553184   -2.08510439330919
O          -2.57513650565827   -0.12943323440181   -1.65783821048938
O          -1.21530874283574    0.68503004906391    0.16422072632205
O          -2.24972487210165    2.27640832402724   -1.36522779568159
H          -1.56524660617216    2.90889218450926   -1.13658833900202
H          -1.20628337817974   -0.96244041538548    0.08905507871398
O          -1.06330662556914   -1.90923617783567   -0.13855151199190
H          -1.75784205501989   -2.08516199443002   -0.78104314624382
O           0.50241354054917    0.19576356136200    2.29657028336018
H          -0.23005539613536    0.40809446632966    1.69996946848195
O           0.59591456428059    2.64325452229146   -0.38695917570691
H           0.02385430642992    2.23801597273458    0.27857179431866
H           0.42461119884575    2.12801072562891   -1.19538969337803
O           2.38289053523784    0.73608254548643    0.54117792841813
H           2.05452338160858    1.59551165133475    0.21920459006045
H           1.83664755208226    0.55223709896579    1.34861323725999
O           0.11475224903601   -2.53073298492201    2.26510478961625
H          -0.37947670761231   -2.50420471202211    1.42976596892280
H          -0.47496770747943   -2.89525244893083    2.92666529604039
H           0.46695259909425   -0.76898949742732    2.42881821841983
N           1.28512477718524   -0.88652722981614   -1.14882074728859
H           0.63809776291086   -1.54033915657186   -0.67683632667034
H           1.91519257876936   -1.37466033596033   -1.77597891997478
H           0.66062628071281   -0.20725040711274   -1.67438135073179
H           1.83207406139654   -0.27845057607821   -0.42008989235663
