    26
        -50.46372048  Gyration_radius:  2.56011141265 Dipole_moment: 7.072
 S          -1.39335436299304    0.79823689431773   -0.29747758638293
O          -0.29660167836487    0.82409173227804   -1.28744362946740
O          -2.69051873462031    0.89227860136633   -0.91008821394853
O          -1.27875342043622   -0.61516989223465    0.40120623292915
O          -1.13991940552393    1.74870390785245    0.76857925883678
H           0.06681606844234    1.70493244158529    1.72585549275390
H          -1.56315369056560   -1.26894957771153   -0.30186612653736
O           0.92631715789339    1.68008443117908    2.24715044734597
H           0.88713229122844    2.42859248771514    2.84398732586361
O           2.66224421670262   -1.51968084936639    0.58902101956585
H           3.42816058632804   -1.85062518686151    1.05926662463970
O          -2.09215672861001   -2.15359014735928   -1.49787410533227
H          -3.03261204371799   -2.28958907161262   -1.36247539921022
H          -2.01963725113825   -1.52977883199265   -2.26839898716373
O          -1.97668382208872   -0.15591135929015   -3.20552767627019
H          -2.45829919717468    0.34600928747203   -2.51506177058818
H          -1.06877686706153    0.14981236142879   -3.09704849774986
O           0.68199370621026   -1.10855448456543    2.27586087204922
H           1.90986981849070   -1.52996125678151    1.23660187806494
H           0.80990478128927   -0.18394953267375    2.53645254341281
H          -0.10716475056184   -1.09964719730273    1.71066580103450
N           1.97712281603810    0.95685460909370   -0.13507247067202
H           2.62853156904070    1.52421166444032   -0.66587682020501
H           1.01941621669451    0.89186550493323   -0.66069835321969
H           2.34710228879381   -0.01406865551136    0.01499832314712
H           1.77302040568640    1.37380211962338    0.79526382712197
