    26
        -50.44592102  Gyration_radius:  2.58183279743 Dipole_moment: 6.944
 S          -2.57116102280578   -0.55685684457518   -0.03204558703777
O          -2.06166559645612   -0.58566472099901    1.32204849965704
O          -3.96215027691850   -0.35443190716155   -0.18572146020481
O          -1.74600209643858    0.52389610965272   -0.80449479085800
O          -2.15710427250560   -1.84460382822280   -0.76813444317450
H          -1.15613946787341   -1.96622527514847   -0.73570097919265
H          -1.52838288067270    1.23720581331625   -0.11701706833815
O           0.39913673639420   -2.12058277591450   -0.82725728593132
H           0.59818665022878   -2.89162732347882   -1.36082365315809
O           1.33301961349730    1.28028811988342    1.75097840393666
H           1.64864320379212    1.49026364213673    2.63115399210631
O           2.71195059141969    1.53781203883927   -0.62416541850570
H           3.62138534224671    1.34200592171287   -0.39454257872446
H           2.21136446640540    1.54591915925798    0.21065891035281
O          -1.22857082187976    1.98234753337092    1.20480681283842
H          -1.65015815794139    1.28713673756455    1.73056802705336
H          -0.26465899977121    1.88988696194488    1.36436876919150
O           0.50415638035494   -1.18643705577866    1.76850558298783
H           1.08261877435048    0.31119750077489    1.76658306727393
H          -0.46379298032970   -1.04940119490133    1.76351013861684
H           0.68958008484035   -1.63867089849674    0.93253149700056
N           0.83399528088710    0.01219865147363   -2.19576139123766
H           1.54847155970306    0.58861725675923   -1.74977784186179
H          -0.05885089611554    0.47728075255101   -2.06588307674129
H           1.03241797801011   -0.02605022306889   -3.18696927594941
H           0.63371079757190   -1.28550414149929   -1.39741884010066
