    26
        -50.44596052  Gyration_radius:  2.52186957044 Dipole_moment: 3.875
 S          -2.30854848801324    0.17711226820217   -0.88370294206221
O          -2.25316270506032    0.96475870167657    0.32769156320811
O          -3.42475156786736    0.37328487745710   -1.72869414784096
O          -0.97552351235990    0.42679078555986   -1.65182227896891
O          -2.21259076757282   -1.32355259229289   -0.51984370536280
H          -1.30213368104714   -1.52836027415003   -0.15787798557463
H          -0.42215399833334    1.05872381679471   -1.07980267599722
O           0.18818072482741   -1.90970225608485    0.22941676479732
H           0.25550128313227   -2.85604829743213    0.36515575156277
O           0.22476839903757    1.98389787557592   -0.03657997042649
H          -0.61757081165040    2.28634988829048    0.32188679937862
O          -1.40962588079333    0.41592601651555    2.80832664148517
H          -1.99314772511722    0.84029792329065    3.43802164539879
H          -1.79936609470145    0.57196889072696    1.92529115347404
O           2.91510475863962    0.86979128936958   -0.42238456045154
H           2.69099063535432    0.62013004847291    0.48173289514391
H           2.38762835318824    1.65147171281580   -0.61200946227487
O           1.05051301180693    0.20846652603749    1.73105926697150
H           0.32564257902408    0.32193405522023    2.37136466102872
H           0.83646484202185   -0.62905682090174    1.28335247057070
H           0.58589776906276    1.35679859235939    0.65005924172570
N           1.51450045792084   -1.18784440595917   -1.85751968149749
H           0.82302641931660   -0.68897221844962   -2.40565597380504
H           2.01472314464295   -1.82393873896260   -2.46387370615195
H           2.17614845844284   -0.49921203649121   -1.49108131543508
H           0.72948442609903   -1.68101561763625   -0.62251045890838
