    26
        -50.46696595  Gyration_radius:  2.45452070483 Dipole_moment: 4.667
 S           1.25070474343108   -0.23409875839979   -1.72057411938351
O          -0.13753637162899    0.11817837636139   -2.00801604655951
O           2.20346024139082    0.73528384327869   -2.15467380626500
O           1.37610280034976   -0.56957069193177   -0.28128208054278
O           1.52764740794817   -1.58233535514179   -2.49117513389653
H           0.83666445483695   -2.17928761882001   -2.18431894474115
H           1.90728325253089    1.02519011913539    0.21881779859291
O           0.12680121491677   -0.31254523336262    2.17951460164819
H           0.69994276309720   -0.44530616920586    1.40771490907462
O           1.91423560217792    1.99859394395794    0.22076611402422
H           2.15947848981982    2.20109581004146   -0.69026591712152
O          -1.98751408854553   -1.52326590918392    1.09660917105835
H          -1.29736652109337   -1.21672607096350    1.72707656151088
H          -1.51318109734843   -2.11546004815648    0.48552234468914
O          -0.05927844348609   -2.71156396173796   -0.47323482320542
H           0.39297643581137   -3.44284761779322   -0.04704855667315
H           0.49241345148477   -1.90911929456212   -0.30390021988076
O          -0.42218499563208    2.38915372847100    1.35482344802497
H           0.46415433046079    2.32147238861121    0.91209512149529
H          -0.46287287619286    3.26463422969995    1.74116207383849
H          -0.04260598260195    0.63737311171063    2.21150070117847
N          -1.91001494642379    0.72772131652143   -0.23763465215045
H          -1.49005582202108    1.43740332985261    0.38908504321161
H          -2.07991764909502   -0.18133161900633    0.30744810577246
H          -2.76249020548189    1.07246653667720   -0.66411593246920
H          -1.18684619872479    0.49489159408193   -0.99589578124067
