    26
        -50.45453319  Gyration_radius:  2.50815025156 Dipole_moment: 5.089
 S           0.40135958627545   -2.09838221768368    0.28252195913822
O           1.51436884518543   -1.14571667513525    0.18564230877058
O           0.76889788693383   -3.44992801674926    0.52072076497338
O          -0.43386499015919   -1.55699605664611    1.53677393700858
O          -0.50890484047294   -1.91617324274304   -0.86211640198792
H          -1.45986258586401   -0.68336294593516   -0.86309227079458
H           0.05702640813951   -0.76237966411207    1.79007048116219
O          -1.92831770714219    0.20219354984222   -0.93083743110284
H          -2.54581059592719    0.11551549552807   -1.65844601238198
O           0.20650785837565    1.05017211481248    2.26590332376362
H           0.29226677370273    1.15255835979698    3.21523841297082
O           0.71652957202051   -1.03152974553571   -3.08397909429807
H           0.24531454735689   -1.44726599702141   -2.33147344472476
H           1.27100139969335   -1.71937636444044   -3.45291002246923
O           1.70745473083123    2.63401202611591    0.60079480259870
H           1.16684195380199    2.14298131082094    1.25036926391219
H           2.62106628120651    2.43962972610842    0.81749029156017
O          -2.32724203933024    0.58992337070840    1.72584521841618
H          -2.27812660150874   -0.34011093772457    1.97279897693081
H          -0.76877437943560    1.04768954963505    2.07540830389402
H          -2.33682777075605    0.58701327930996    0.75054985825739
N           0.72414003332022    0.87394485563055   -1.17930122340867
H           0.98227933739801    0.65807971042818   -2.14719862307633
H           1.08073136390953    0.03469080050145   -0.58945376050354
H           1.13958447002462    1.73621724885407   -0.77982241122442
H          -0.30763951758080    0.88660045552347   -1.11149719740522
