    26
        -50.45612332  Gyration_radius:  2.45568915581 Dipole_moment: 8.955
 S           1.30338360605514    0.45329106538262    1.59767676350832
O           1.24643346379999   -0.85517749884421    0.91433550581610
O           2.63222207687118    0.77367945697302    2.01922624328590
O           0.87496667784561    1.50625199840467    0.47227955130666
O           0.25246184856202    0.55730863509107    2.59379518998385
H          -1.21380371669997    0.28912242374195    2.20220421954794
H           1.65593092614348    1.42324385819478   -0.13512648596792
O          -1.36461808016544   -0.24563999062359   -2.08138984164177
H          -1.98863269030721   -0.15511030829586   -2.80238822787443
O          -2.15294739985180    0.06344317787512    1.91261225341672
H          -2.68317679646719    0.12085802118604    2.70866897696910
O           3.01623713932212    0.71061579750643   -0.69179396584268
H           3.27801935752203    0.55283935120451    0.22859226564909
H           2.61753790845647   -0.11375970068812   -1.02039606970861
O           1.38421855924179   -0.90708714879267   -2.30179726939535
H           0.46113966123787   -0.62058450369093   -2.23848605623640
H           1.76395140777654   -0.44264637076669   -3.05021094724172
O          -1.71705590362042    1.63751627924646   -0.32418078594087
H          -0.79643554287018    1.82039556072550   -0.06636193155753
H          -1.50597605917905    0.54482006757940   -1.48258757307461
H          -2.10583594457005    1.21454146635835    0.45876586502906
N          -1.02105377619808   -1.69459010087417    0.20656415940273
H          -1.19577815038836   -1.35226822575767   -0.75407369466897
H          -1.65788605280026   -1.21721162691509    0.87136772242504
H          -1.08957376285541   -2.70373112708364    0.26288084048720
H           0.00627123312649   -1.36012052713848    0.49982331233417
