    26
        -50.44657202  Gyration_radius:  2.4842122387 Dipole_moment: 7.298
 S          -1.86384802390398    0.93343636265287    1.45705797667514
O          -2.14292376390412   -0.39440459783997    0.99068172705239
O          -2.41363041529892    1.33743401732792    2.69747258519949
O          -0.28371187882794    1.08050899443448    1.51423453705003
O          -2.19775829022072    1.96114946382099    0.36774682164673
H          -1.81378361700155    1.59291918945815   -0.49842023226762
H           0.16634772908727    0.18613831407837    1.62137682473883
O          -0.27974058444876   -1.49472136442382   -1.92782390155403
H          -0.79482818741324   -1.93325974639233   -2.60634850482331
O           1.13201521078428   -1.05961502398262    1.64641195900692
H           1.78688101513011   -0.94328739981096    2.33667801393317
O          -0.98449719243047    1.09814999012139   -1.69048015760156
H          -0.12608107855800    1.51823981355420   -1.51000036825731
H          -0.80615057869016    0.13324531047874   -1.74857049693773
O           1.15989074033725    2.32051907972762   -0.45813485630144
H           0.70431527646210    1.99004780062452    0.33769073700325
H           1.05676826954869    3.27385891117684   -0.45510381223852
O          -0.82805877983659   -2.62734260706131    0.37392306063023
H          -1.49988483092738   -1.96839184023931    0.62710347090656
H          -0.48715591231914   -1.97185475985779   -1.07709101553779
H          -0.07701345238100   -2.42856672366600    0.94695284563598
N           2.19312540205344   -0.50403083271092   -0.67035666140945
H           2.17224939059953    0.50588732641229   -0.76412626668186
H           3.11137464660600   -0.83067476171337   -0.94082312866071
H           1.60049793115107   -0.88842450713268    0.75456658812376
H           1.51560099440199   -0.88696042904114   -1.32461774533275
