    26
        -50.46172228  Gyration_radius:  2.52003157885 Dipole_moment: 6.735
 S          -0.74932722184529    1.03843161954651   -1.84771321999100
O          -1.41290435743034    0.87935639299319   -0.53586295023798
O          -0.71918912124486    2.39721952298034   -2.28972422337248
O           0.57443194566360    0.41760659202559   -1.80056019155151
O          -1.61932431700052    0.19052207363069   -2.85209721207878
H          -1.72021017469871   -0.67624733356879   -2.45711385778709
H           1.59050834838616    1.78746280789586   -1.32242553578314
O           1.60058433822347    2.65087170677458   -0.86545045707237
H           0.90424358362235    3.13057089560079   -1.33765403258041
O           1.44194068312260   -0.90425797337437    1.73573651803829
H           2.36505438809789   -1.05469234278044    1.94277673545257
O          -1.71336468559478   -1.74165066602980   -0.32491760366619
H          -1.73239580985031   -0.76473909598073   -0.35991234085626
H          -1.75070221838878   -1.94256836606526    0.62594218208881
O          -1.06310832356133   -2.02493069696054    2.36566953357911
H          -0.93684482342935   -2.92559408484025    2.66809395149175
H          -0.17999195996232   -1.63138765493854    2.28521589365702
O           0.94971872152787   -1.87904004818718   -0.57369596330350
H           1.29199589199150   -1.32156688111835    0.81603754635153
H          -0.00979581676191   -2.08434573971628   -0.52418932505590
H           0.97525895528028   -1.07683609066347   -1.13673603005322
N           0.39157236680146    1.51806804954188    1.19220731337596
H           1.00336207532814    2.07712996196852    0.53079033628272
H           0.86809752103709    0.63068972979413    1.48397787255681
H           0.09893510330487    2.06115838494418    1.99734752088187
H          -0.44854507268735    1.24876925651480    0.58425753962269
