    26
        -50.44657203  Gyration_radius:  2.48421372868 Dipole_moment: 7.298
 S           2.44916740645492    0.03912286387617    0.68448601123765
O           1.78683504204825   -1.17085406076437    1.07922012398490
O           3.83701328803588   -0.01527174417431    0.41052529291494
O           1.68589862477062    0.58715290234588   -0.59567936480519
O           2.14884419362283    1.16142501774023    1.68674654639570
H           1.15010846187048    1.11881431429074    1.87108670137739
H           1.21617132843397   -0.15362519882782   -1.09021410590753
O           0.28296983754772   -1.06613048314054   -1.97415073590770
H           0.49619421644090   -0.94034002840368   -2.90019599650132
O          -1.83902888113568   -1.03064872578829    1.25894841126177
H          -2.22995037409945   -1.42304239484181    2.04076194288178
O          -0.18324935223009    2.58715716501270   -0.46147069193304
H           0.56043259885589    1.97313119453657   -0.60294610340697
H           0.20253808783660    3.45085569126474   -0.30432097692848
O          -0.38358000566882    1.15207000599932    1.88620858192137
H          -0.85648576379682    0.31038308099162    1.70143556437447
H          -0.56682203047072    1.73357655470613    1.12844794767836
O          -0.16685338764607   -2.76615078279430    0.22284085405676
H          -1.23850157406912   -1.72810678209422    0.87510515071687
H          -0.06718780768904   -2.51049705552058   -0.70271260830881
H           0.61829959908127   -2.38780564963880    0.65878799387811
N          -1.87755416261614    0.27014507975825   -1.38382203129716
H          -2.69559636002530    0.27263323339765   -1.97865670053678
H          -0.59603386938893   -0.57572210212256   -1.79797531533630
H          -1.59101883386411    1.23102571470149   -1.22963840662224
H          -2.14261032229803   -0.11929781050990   -0.48281811518895
