    26
        -50.46827115  Gyration_radius:  2.47301000857 Dipole_moment: 4.485
 S          -1.40873952973433   -0.99027487104337    0.01474802541592
O          -1.26295170520658    0.13367075902058   -0.93675166221766
O          -1.64142612375275   -2.23634117732418   -0.66966314547746
O          -0.21868343171746   -1.03594580393870    0.87054467159649
O          -2.63832388623422   -0.69234230043089    0.90392410960247
H          -2.44191760794785    0.11065968395357    1.46416934165939
H           0.98443745364836   -2.59570812480981    0.12851955471989
O           0.85598693562326   -2.92979675752341   -0.76862894551552
H          -0.12705979463871   -2.95405084828932   -0.83628752938732
O           2.89588100320820    0.73512202867931   -0.76520483236480
H           3.63462857900305    0.21990382224276   -0.43668263182848
O          -2.20051440723797    1.50667111837404    2.21661766873856
H          -3.05170518416196    1.93817721655361    2.31142414325300
H          -1.70859919206014    2.00837643274741    1.50822254511326
O          -0.85214230933419    2.49733847278206    0.20788518958636
H           0.04050644785077    2.29118283526225    0.52762806109592
H          -1.08668573394968    1.73345558444676   -0.35873644678142
O           1.22513815502381    1.04923974772784    1.30376837992351
H           2.35566286598878    0.97469218800288    0.01742587494928
H           0.64951480205361    0.24769191084797    1.14726812652274
H           1.28720813368141    1.13771319049160    2.25606873744453
N           0.95541475238584   -0.62383916546965   -2.04808224980531
H           0.02852149996728   -0.23470440645059   -1.68082840086055
H           0.96043470611273   -0.63336769289747   -3.06257567652255
H           1.74450720608873   -0.04757801482118   -1.66754060047530
H           1.02090635541042   -1.60994581816961   -1.64723231836649
