    26
        -50.45724316  Gyration_radius:  2.49610793561 Dipole_moment: 7.212
 S          -0.53462746160191    0.80806641500828    2.21383647829466
O          -0.19887639429751    1.95019891117389    1.33763125506157
O          -1.38355615420708    1.14513314196038    3.29976889833511
O          -1.01859473324128   -0.29629145921418    1.36573994484220
O           0.84845015386278    0.29675820476360    2.79102385845826
H           1.30025854745307   -0.18897752540239    2.07781938009887
H          -1.68669373979365    0.39778164181006    0.11726738718375
O          -2.07362286441970    0.80152127610128   -0.70763271741089
H          -2.43869759044510    1.63985184795938   -0.42067128571694
O           2.19406574440605   -1.02940846430082    0.80812869130467
H           2.82143378023571   -1.61577789381904    1.23278251866376
O          -0.01212134630330    0.87455682453132   -2.43791626780474
H          -0.07795387622672   -0.04073600723720   -2.73079601099944
H          -0.81906102901323    1.01287450169355   -1.89450954971804
O          -1.43097533676433   -1.58017449151635   -2.06196458836310
H          -1.86521361870275   -0.85156925859774   -1.58999507046093
H          -2.11135780148555   -2.22811067416497   -2.25041842636563
O           0.08011677679709   -2.34222452384620    0.14568248809239
H          -0.29363311898566   -2.20631828469408   -0.74103857848370
H           1.43400905260925   -1.60920329318875    0.49207393124141
H          -0.44083924480289   -1.73865532364056    0.71823049647316
N           1.57228115369601    1.36139641297654   -0.36681377598226
H           1.05603474161208    1.17188911705062   -1.26846428425697
H           2.02556064534489    0.50199587046036   -0.02810978550051
H           2.24754876810959    2.10806430959002   -0.48511027022862
H           0.80606492614111    1.65735876452542    0.38345527323254
