    26
        -50.44654998  Gyration_radius:  2.48652387615 Dipole_moment: 5.495
 S          -0.26571808097659   -1.84714322393043    1.19192300413241
O          -0.07127333770879   -0.56654730068761    1.83669889735939
O          -0.45839524240012   -2.96829533790374    2.02969279766354
O          -1.45908807787223   -1.70798727640172    0.20847805928927
O           0.93454735125492   -2.11758180152194    0.25590936546540
H           1.08820663712455   -1.33002209791075   -0.33903190420080
H          -1.72998570704514   -0.74815282612221    0.04751740654014
O          -2.27526278480236    0.68243918453980   -0.27027230404057
H          -3.14574344944948    0.76921233898282    0.12289613201973
O           1.24471206125534   -0.21340937593201   -1.46981011307567
H           1.95508957311693   -0.48425209767973   -2.05457910162824
O           1.64617160601951    2.11166872771977    0.06615451073366
H           1.52083546552191    1.42021433856650   -0.59858644751680
H           2.12641300020211    1.66652736501400    0.78661861451330
O           2.44275816558077    0.38661495900530    2.04296022079130
H           1.56087447908610   -0.02843626937847    2.00880165776036
H           2.63055761642987    0.54696960926246    2.96877128814123
O          -0.72835037357992    2.01624755470881    1.26230871849343
H          -1.67002412920176    1.29419782435022    0.27239105835255
H          -0.50527495061497    1.21932814821638    1.76752105704586
H           0.10939191140024    2.24892681962674    0.79282665612876
N          -1.06870474633477   -0.48745628691389   -2.67918655981297
H          -1.24079242691090   -0.26348414996377   -3.65093090611019
H          -1.37886308394103   -1.43627480109283   -2.50719883742346
H           0.38080846319424   -0.28522065715529   -1.98865760321187
H          -1.64288994933264    0.12191662260835   -2.10321565741647
