    26
        -50.44244544  Gyration_radius:  2.56231493363 Dipole_moment: 6.894
 S           0.15846185305999   -1.71414040707098    2.09054087127840
O          -0.11374318392999   -2.78356269149603    1.17342313105846
O           0.90414980835833   -1.98655295450316    3.26156072177487
O           0.86661133472447   -0.57362129982984    1.26695235481833
O          -1.17225103788684   -1.02695505397005    2.50113981616860
H          -1.66149127240349   -0.77487750460929    1.67383746059200
H           0.94243769911498   -0.95837619785486    0.32891445076092
O           0.97202976653186   -1.73451642320119   -0.99571427824128
H           0.59892426058094   -2.50495234070221   -0.53720482611899
O          -2.33029013538304   -0.01881053819330    0.39194470352192
H          -3.24069502843399    0.20950225595901    0.58688105061842
O           0.60631036933647    1.89882872551918   -1.90947754172157
H           0.84705687597116    2.26753326042605   -2.76057673985496
H           1.40683384829654    1.42985035700611   -1.57789081783488
O           2.66815549949974    0.46075422261190   -0.95823462799021
H           2.38059447007114   -0.42871773584557   -1.20989013214440
H           2.69700835629455    0.46161728983083    0.00216233634797
O          -0.99237510323778   -0.35939585289418   -2.03600118886957
H          -0.54996253886232    0.50896865518287   -2.05115231049646
H           0.22095744856184   -1.32536820763197   -1.50973750066970
H          -1.60267160480851   -0.33945028942402   -1.28333570786577
N          -0.68332506465835    1.97099311452053    0.73152093160883
H          -0.30009744718293    2.23377715737337   -0.17217688791252
H          -0.88470504402271    2.81360701821063    1.25318996049878
H          -1.77169561330539    0.82363680345525    0.51327435396682
H           0.03377148337915    1.45022860703506    1.22605041661025
