    26
        -50.44244551  Gyration_radius:  2.56223780305 Dipole_moment: 6.891
 S          -1.52778049681659    0.52221633946810    2.17349876507036
O          -2.63196258902693   -0.08235143824182    1.48494632966163
O          -1.50677216968949    0.50316097102373    3.58797579248902
O          -0.21708143125209   -0.15042801576573    1.61689493735236
O          -1.35594615502894    1.99022098101769    1.69698704731837
H          -1.30054802197538    1.99286675658720    0.70492814708424
H          -0.55753489908934   -0.83750380509806    0.94906933729792
O          -0.84199321227918    2.03512398602536   -0.86050426073903
H          -0.95051550353833    2.92201423928468   -1.20783381367671
O          -1.28374350853375   -1.81514767588636    0.01444798434967
H          -2.13252084727425   -1.49695466360201    0.36284989722031
O           1.97322177330252   -0.96865572187602   -1.66818612613046
H           2.39445991881389   -1.51764023016823   -2.33112904232758
H           1.82266860703730   -1.54970911641846   -0.88699862585682
O           1.37083374554232   -2.48057711275757    0.47119954759407
H           0.43504843573185   -2.65377054585561    0.29355117109104
H           1.39022846620813   -1.97554696364727    1.28833887939258
O          -0.70607127069024   -0.44610456968814   -2.13582520120862
H          -1.17291738091605   -1.38973150733095   -0.88135494532485
H          -0.89787692962973    0.45108871220128   -1.82339315210070
H           0.26264637656186   -0.54685798075885   -2.09716031344668
N           1.60571856626899    1.51373234744314   -0.13610776787182
H           1.98007433180803    0.79443887407058   -0.74852173525155
H           2.32636716893019    2.20399103065574    0.02790269908437
H           0.14482714168545    1.91093266971630   -0.64373686459977
H           1.37716988390033    1.07119244965857    0.74816130353833
