    26
        -50.43284123  Gyration_radius:  2.78335881657 Dipole_moment: 9.133
 S           1.26361900426374   -0.78018320487973   -2.89957538797789
O           1.21310404565873    0.63587771699697   -2.65071370239267
O           2.05735209255598   -1.24201613546650   -3.97459898857204
O           1.69567068942559   -1.47542018900711   -1.55447208246628
O          -0.17817847029395   -1.32809369012430   -3.07647173981234
H          -0.67564277196350   -1.15333600786708   -2.23512904016159
H           1.85566855523825   -0.75907499875966   -0.89630430407425
O          -1.41166858069363   -1.10377908229543   -0.78645991096140
H          -1.99902514640899   -1.86185794095443   -0.79797255276574
O           0.08518115410691    2.29913614677418    1.09016319332286
H           0.20781822780097    3.20710247687796    0.80983573234431
O          -0.98381450766765    0.64056399779498    3.07437266867540
H          -1.03760942522459    0.98354982786880    3.96721709576451
H          -0.47372625490408    1.28562748458184    2.55724647693164
O           1.96663451715263    0.71814302783846   -0.13014586610451
H           1.83052348203722    1.02334620423907   -1.04617020830901
H           1.33316205734393    1.24313937594262    0.39730259547779
O          -2.22490388316804    1.21598402799519    0.42690260702004
H          -2.33174770218402    0.83603470225280    1.30646560078131
H          -0.77148502958700    1.99399908895751    0.69400560152333
H          -2.02173677537791    0.47031712126973   -0.16546840666094
N           0.17194122699133   -1.39963778551965    1.26339469602581
H          -0.74748840043616   -1.25895699142744   -0.02256289865742
H           0.40949166559263   -2.34572576646603    1.53045808965155
H           1.03538924235268   -0.90645485001919    1.06351370206919
H          -0.26852901262528   -0.93828454660934    2.05516700932665
