    26
        -50.44352672  Gyration_radius:  2.64418661283 Dipole_moment: 9.504
 S           1.93540798308024    2.28903541150683    0.11485408156916
O           0.73932234759107    2.07313086585455   -0.68336145506791
O           2.52613274888944    3.57004102165650    0.02311685237487
O           1.60711918318908    1.97247022845073    1.58060813711985
O           2.94192592428021    1.16163736315757   -0.26636397928936
H           2.62346487499690    0.72210656387967   -1.10483986388304
H           1.27153507453544    1.01493573818997    1.62007558019054
O          -1.98273307624202    0.08816651877529    1.75871617731752
H          -2.21622757740957    0.80654139426038    2.34812257152516
O           0.32957399557393   -1.71694252328090   -0.82957696676056
H           0.87210230203106   -2.50718226248281   -0.81346486435762
O           1.67032750683861    0.20661982154943   -2.30596286245253
H           1.19416912552782   -0.54771633746198   -1.92136217825245
H           1.12584470911711    0.98728644252338   -2.11251895534307
O           0.67017872623432   -0.39361026105914    1.56128536932899
H          -0.27829847638446   -0.27853641375786    1.78079269560928
H           0.68300000234572   -0.78782993559898    0.66935690941779
O          -1.65544763655736    0.92443607269043   -0.72741766965184
H          -1.96454702542799    0.46954328230053    0.84528060939830
H          -0.85545448096784    1.48563045320067   -0.68954869557846
H          -1.42267859965414    0.18037967535986   -1.28808121491906
N          -2.06562137822205   -2.39407386603935    0.11373048558880
H          -2.84486286749211   -2.28954369702224   -0.52461414572856
H          -0.58691806177937   -1.99687682467942   -0.53372934931234
H          -2.19571866593514   -1.72010695041000    0.86400260406642
H          -2.12159663815225   -3.31954179155586    0.52090013709097
