    26
        -50.44890319  Gyration_radius:  2.42487973722 Dipole_moment: 8.951
 S          -1.19007061435080    0.57295979494607   -1.77407299438457
O          -0.98474753615644    0.88261519783898   -0.35557500278922
O          -1.92116694832734    1.55550804281899   -2.49670030950273
O           0.33092328117867    0.52541434046137   -2.36374008915065
O          -1.62853696819202   -0.80878479029123   -1.92684014819415
H          -1.41741553193186   -1.53691962031530   -0.60746062073024
H           0.76462578973173    1.30147994287278   -1.92855006402072
O          -1.09270170435636   -2.10398015467963    0.16659173600155
H          -1.61963112072585   -2.90425636849174    0.14525937773113
O           2.13780183206635    0.12526111644659    1.13199409782088
H           2.83480506476040    0.02282252528875    1.78100977861119
O          -1.69826839084334    1.63254928368894    2.08269572904142
H          -2.65207816137180    1.62982705789326    2.17265956226743
H          -1.51495633538690    1.48109989045750    1.13420372010066
O           1.25623093031072    2.21470334853106   -0.61301191773022
H           1.80500019795952    1.70714951695308    0.00103154052535
H           0.34323147610006    2.04294189831545   -0.31429068089291
O          -0.07501482537951   -0.52015570787626    2.28749787471962
H          -0.62081295605185    0.28484774904250    2.39715004889914
H          -0.54399895383012   -1.04717061645520    1.62218380369857
H           1.27059489562033   -0.03541836329228    1.62781823969583
N           1.26528307363549   -1.42751349774291   -0.84130164765279
H           0.89800834373026   -0.73541535270282   -1.55226938478610
H           1.87464358449941   -2.11142452163520   -1.27774018677253
H           1.76047487069535   -0.87142162488707   -0.09396430397768
H           0.41777669661398   -1.87671908718525   -0.40457817852747
