    26
        -50.45694989  Gyration_radius:  2.48200108035 Dipole_moment: 7.900
 S          -1.95036570202810   -0.99055801933904    0.77264293039292
O          -1.52623816409803   -1.80355286202894   -0.37783819127037
O          -3.21503857967944   -1.32189291390271    1.32562226620523
O          -0.85683826635308   -1.24174962246705    1.89098753964723
O          -1.81139110940511    0.44006001896503    0.42289011751115
H          -1.02675802661040    1.29239591258737   -0.59493892874898
H          -0.00087852954064   -1.21915790036104    1.42313326437110
O           1.61043636562186   -0.91648793021547    0.87270965757656
H           2.16828702509797   -1.15365826963922    1.61532506618797
O          -0.47787521402735    1.79158238977165   -1.27188616695189
H          -0.97487566332033    2.58694535458869   -1.46801494344118
O          -0.70841812331315    1.58252985137086    2.52341962257257
H          -0.72774163368791    0.90367240648982    3.20127045427270
H          -1.26092884215477    1.22434762711517    1.79390249868536
O           2.35411132061820   -1.19863928271331   -1.69169407210509
H           2.95914026291462   -0.46112283385521   -1.79276257270191
H           2.15071945669908   -1.25769104982318   -0.73390779973209
O           1.36144351447986    1.64182472681708    0.83431877087115
H           0.70251960525706    1.76115536222336    1.55727182727817
H           1.56050155252669    0.09476996739135    0.86399896246035
H           0.87159232885854    1.84701250278493    0.02175030862892
N          -0.23504470462076   -0.71548799832997   -2.26915025279543
H          -0.61171864327929   -1.00716374703342   -3.16373810988689
H          -0.80193455576263   -1.20176122859083   -1.45055072249198
H           0.77074760171196   -0.98548090244449   -2.17557840827783
H          -0.32345329599935    0.30810843067356   -2.12918308823942
