    26
        -50.45694988  Gyration_radius:  2.48204172514 Dipole_moment: 7.899
 S           1.25186622050976    1.78876698957200   -0.78460786796194
O           2.16962447921785    1.00867567722272    0.06016064637344
O           1.75883535046455    3.02577572380980   -1.26196416388702
O           0.95742402177703    0.87293485983131   -2.04331101864116
O          -0.04960674857606    1.90769908525728   -0.09149896090079
H          -0.81904140693158    1.16790535458075    1.02132391043908
H           0.82414678517609   -0.02390712749352   -1.68288565847981
O          -1.27408272083664    0.63487725340311    1.74081772234711
H          -1.85043981499756    1.25339727626784    2.19173305584353
O           0.25434256225283   -1.59935176059826   -1.25352673924793
H           0.16720165116277   -2.06095045995311   -2.08915063171258
O           0.91095592271721   -2.81169663143844    1.05009357727031
H           0.80136786201478   -2.46642285579735    0.13850068153148
H           0.08621687790425   -3.24799601168066    1.27290002978418
O          -1.87967209772932    1.45517000752917   -1.92975607556567
H          -1.39012520748318    1.44060198816528   -2.75486690158673
H          -1.23715117140918    1.78358612477060   -1.26264380963102
O          -2.07910249686050   -0.80702187095743   -0.52144798866673
H          -0.68177855887981   -1.33156938264186   -0.97573706175706
H          -1.96335607721797   -0.42940332873601    0.36527201252387
H          -2.18760294170671   -0.02504467345071   -1.11125181370322
N           1.24735483449645   -0.31657723958691    2.01524032122678
H           1.66286935881709    0.26105756599160    1.16596022907381
H           1.22361850823527   -1.32609175793959    1.74398249446256
H           1.82038401396028   -0.17081536932541    2.83844168766192
H           0.27575079389795    0.01640056319743    2.15822233319194
