    26
        -50.44317949  Gyration_radius:  2.60370816326 Dipole_moment: 5.592
 S          -0.88835315578747   -1.92933400347236    1.56389080622789
O          -1.70581642815295   -0.89815332910806    2.21820046842501
O          -0.44855090196657   -2.97124143203981    2.43127665910391
O          -1.89708805319150   -2.62459883334588    0.50735450891245
O           0.12450701179477   -1.31482201195110    0.72178787524427
H          -0.29979417811393   -1.52884717359174   -0.85652193060838
H          -2.35566996769658   -3.22337207360871    1.08655572477300
O          -0.63482326391649   -1.50997231004268   -1.78129888445595
H          -1.42037221943054   -2.06072310494049   -1.76435403562198
O           1.45764650132750    2.02798222877848   -1.12924008866307
H           2.04849801986587    2.51292635977221   -1.70586205683047
O          -1.53675967930338    1.25633711994200    1.07146492946058
H          -1.62474959053570    0.29602815310113    1.57319503269343
H          -0.66137627247695    1.66571913063246    1.35491481170953
O           0.73750406716084    2.45790625193811    1.43110181256611
H           0.63594233098546    3.40147317066309    1.56741845900880
H           1.08483905335843    2.33360732309479    0.52180562332874
O          -1.11743578432699    1.07507130370906   -1.40646409904141
H          -0.98143630704774    0.13061162551403   -1.65922628129040
H          -1.44497706501112    1.12505222372916    0.03488076864849
H          -0.23615260764131    1.48679504827781   -1.45025102865130
N           2.31036336535360   -0.42518976058498   -0.87234554475554
H           1.67566442168247   -0.74116011479061   -0.13924689701446
H           1.83441678463419    1.08791293971217   -1.04379257806886
H           3.25218658959093   -0.65410527449795   -0.58075044747030
H           2.09178730884957   -0.97590344689776   -1.69449361763310
