    26
        -50.45909897  Gyration_radius:  2.47761620468 Dipole_moment: 8.425
 S          -1.00050442130799    0.58018218316205   -2.19143701430636
O           0.43128689969298    0.40289073496395   -2.49563181252513
O          -1.87589316470974    0.26220667362199   -3.26496248885694
O          -1.30676438203488   -0.15742806165738   -0.94143260683743
O          -1.17455403843263    2.09672512523808   -1.82146447798426
H          -0.57665311322630    2.22526967195906   -1.06357482762665
H          -0.80545892554114   -1.53177318832852   -0.49394054140292
O          -0.41784299666417   -2.38951768405577   -0.13004333376016
H          -1.02586410595709   -3.07773668403157   -0.40286783768892
O           0.16639643011430    2.44385818456157    0.51468940388480
H           0.06495851379226    3.36607728027044    0.75446794007851
O          -0.11142451773753   -1.23103789271015    2.30675885799381
H          -0.25032836318255   -1.72106808884657    1.46845009442407
H          -0.14033844383402   -1.87230412303075    3.01760984793521
O           1.86960413162187    0.47030151573054    1.34881066289570
H           1.22390587146233   -0.04044472212486    1.86550439515054
H           1.40348504942205    1.27888324489565    1.06705376447490
O          -1.71136798186666    0.91137892587276    1.42424750507166
H          -1.28300208797155    0.22574193158596    1.95666115495114
H          -0.59133883731179    1.94798443961093    0.94892817825856
H          -1.77572399676740    0.52088962663471    0.52396935989331
N           1.80649754041900   -0.96249118203607   -0.87407250038563
H           1.21017593271617   -1.76675327591979   -0.63992955096928
H           2.68602818267598   -1.25300386348734   -1.28468143043361
H           1.22961962033057   -0.34799024739702   -1.59382938027019
H           1.95510120429481   -0.38084051446722    0.00071662801383
