    26
        -50.46652159  Gyration_radius:  2.42010054995 Dipole_moment: 6.374
 S           1.37827779912838   -1.05398468079962   -0.55516104056435
O           1.26282434656416    0.37940763287488   -0.23804457678201
O           2.23548627915514   -1.77354164881378    0.32171170703087
O           0.03753383427847   -1.63398042061464   -0.69563654577198
O           2.00580181995969   -1.09753547018802   -2.00742783927118
H           1.42069630772358   -0.58796762571296   -2.57135518900297
H          -0.06263079755919   -2.74455418556037    0.73108748812631
O           0.11788233151308   -3.01840483719806    1.64385626463164
H           1.07538828018907   -3.11683285694910    1.67365238013088
O           0.37624091353940    2.76926015430651    0.71334461487600
H           0.79157633958012    1.94950128538707    0.39428319427740
O          -1.79197419135513    1.29477174258504    1.36604764894448
H          -1.17452142962912    2.03165106049516    1.18038020520244
H          -1.23078716039035    0.64065134949090    1.84815952591558
O           0.12775587069130    1.20189223219153   -2.41343204905151
H           0.60279595601564    0.97438203653160   -1.57740785260158
H           0.36571059306191    2.11004898020236   -2.61127783059417
O           0.10574140485291   -0.36463700256327    2.18036722997381
H           0.87268565265843    3.02747317025533    1.49201585757278
H           0.00440151942586   -1.33703329683670    2.22022906728556
H           0.71999584660170   -0.19963896046195    1.45492737945867
N          -1.88053576626733    0.11198131096512   -0.92541876878444
H          -1.18635558156480   -0.68311973951612   -0.80180101342569
H          -1.93735292506679    0.63412757992315    0.03610393662434
H          -1.45171978972588    0.72365610280963   -1.63776069010038
H          -2.78491743338123   -0.23757390280164   -1.22144312409662
