    26
        -50.45167165  Gyration_radius:  2.45337484584 Dipole_moment: 8.908
 S           0.24550358378973   -2.34323078898344    0.25667645620808
O           0.09119425069191   -1.79056369732239   -1.08147486951021
O           0.83318366693774   -3.63267089073725    0.33790417785262
O           0.96592841968217   -1.33087460986503    1.10023126237378
O          -1.19820692816017   -2.40576460920066    0.89683542376619
H          -1.66259242934422   -1.57883753363404    0.66094405035954
H           1.78863467499758   -0.56778984056698   -0.08333048026631
O          -2.49427787739661   -0.10262099025657    0.32451441992733
H          -3.44105594147835   -0.21967661263327    0.40907704889228
O           2.14957084434598    0.00365764341122   -0.80504127700515
H           2.11855404420726   -0.56331861068765   -1.57992877335706
O           2.01332927960753    2.22157044638206    0.81934026516765
H           2.26963861284041    1.53205372105081    0.18325134526111
H           2.68971357164677    2.22028112513540    1.49829627834034
O           0.00710376544446    1.67210485097721   -1.25680457345584
H           0.72779654007863    1.01636003168739   -1.17306641398270
H           0.43153338375848    2.52091797482419   -1.38709587066571
O          -1.75491527176681   -0.23582093899575   -2.11715065828629
H          -2.29388226122088   -0.12391237043963   -0.67131280474372
H          -1.23240886688642    0.58069837431235   -2.13419242991658
H          -1.09792910320912   -0.93747932985080   -1.90634941707200
N          -0.24896611683842    0.84343672169885    1.55581337837454
H          -1.11381548868719    0.81406538214990    0.99353483726426
H           0.42061105258838    1.56123047983302    1.21326605396558
H          -0.46822667725158    0.98287767980066    2.53621544355449
H           0.25398127162976   -0.13669360809567    1.40984712693880
