    26
        -50.45437697  Gyration_radius:  2.45351055648 Dipole_moment: 8.406
 S           0.61207564865564   -1.63460367736122   -1.52570357515743
O           1.15273387582832   -2.02069428954010   -0.19278874589113
O           0.27686067753409   -2.75192707924267   -2.33753712169524
O          -0.73102262379248   -0.84030304834265   -1.16392592351115
O           1.45161405966720   -0.61542574870623   -2.13204147194121
H           1.33627944391111    0.78883093099158   -1.53046360524050
H          -1.09453379647785   -1.33434176510240   -0.38562199531780
O           1.38098961405520    1.66241087989836   -1.02673223758655
H           1.80210611773486    2.28266540773638   -1.62330748432541
O          -0.47568617820420    0.36918737251162    2.32506552833046
H          -0.83167809276802    0.71922219844461    3.14238947785572
O          -2.68503988883756    1.04505725642796   -1.36389774914996
H          -3.49021537563711    0.55546359588561   -1.18850991271790
H          -1.99706504853396    0.38362878786628   -1.54754274517209
O          -1.18983712341083   -2.03369898842642    1.08823767302682
H          -0.31653067512330   -2.40465244682254    0.87814641067967
H          -1.02613574985226   -1.27230693458967    1.67062418098703
O          -0.94299449220305    2.07359443507415    0.44125756900504
H          -0.15845751494236    2.04012226390256   -0.13188581789957
H          -1.68527269713461    1.82795719875867   -0.14448948086364
H          -0.73652097198065    1.02342419124831    1.60448273273584
N           1.89656210433916    0.04566196772432    1.05346787249886
H           1.87981697488736    0.81301777055871    0.35083325453327
H           1.64642730213733   -0.88533022217921    0.49681956221010
H           2.79872589444916   -0.03077857203011    1.50857147241765
H           1.12679851569948    0.19381850531528    1.73455213218833
