    26
        -50.44072271  Gyration_radius:  2.66732358195 Dipole_moment: 8.116
 S          -2.09119524838412    1.80667216203895    0.97606688314851
O          -2.72692346394142    0.57619745341066    1.35970446660675
O          -2.39431904698410    2.98063725556652    1.70399364695528
O          -0.53885440099245    1.54850329464604    0.98460987443231
O          -2.35516822538516    2.08231893491084   -0.52970135562488
H          -2.02587483940165    1.31174249860123   -1.06562597165897
H          -0.42209070253351    0.58952056242724    1.26492556198365
O          -1.23251000036635    0.25112329504861   -2.00851524188947
H          -1.47481686394412    0.41908833544028   -2.92065102792049
O          -0.60265571481552   -0.92553280723909    1.66398765503228
H          -1.54585666421734   -0.71240377198460    1.78236558588166
O           2.08143713320772   -1.25475725567999    2.08769605035432
H           2.20869274877280   -2.02817684622793    2.63998975423572
H           1.13110533048714   -1.05218962802753    2.12059282700375
O           2.39483071400671   -1.35877890772166   -0.58703687426051
H           2.35967060736104   -1.27009032716960    0.39154226225870
H           3.08464816049709   -1.99576446509167   -0.77779634309952
O          -0.30071697698573   -2.01978786279800   -0.70256471728494
H           0.64945388323009   -1.84418159466989   -0.81913420037092
H          -0.55079505925923   -1.44067543150896    0.81164125143933
H          -0.76568185951351   -1.36504278549480   -1.24554866343265
N           1.12949131486016    1.18567516096695   -1.44311496992433
H          -0.29450894654816    0.63090904104358   -1.86869672290802
H           0.90394912920446    1.63262663329242   -0.55966427336905
H           1.74606564964035    0.40299006372466   -1.24209307695010
H           1.63262334200697    1.84937698253700   -2.01697236062069
