    26
        -50.46185355  Gyration_radius:  2.44953088583 Dipole_moment: 8.671
 S          -0.36787349762712    2.15994538616891    0.32216473296616
O          -0.09472765235492    1.08095686229282    1.27252061701511
O           0.61860166153796    3.19107913242258    0.31408442310556
O          -0.58135783373355    1.56177276586691   -1.01783487187017
O          -1.75137505510312    2.79239725521436    0.72634125472223
H          -2.38023505352373    2.06291028844605    0.72127889358072
H           1.06861624419424    1.64404974773275   -1.50061864508815
O          -1.07786030840193   -2.43718596631262    1.02213278899564
H          -0.97766576982577   -3.38426954183170    1.12257350275139
O           2.03740049120789    1.56834824791214   -1.39770322015676
H           2.22462517187371    2.23805708024304   -0.72930618460285
O          -2.46294278543490    0.08334005867920    0.81993183079270
H          -1.56550766385699    0.34517853113018    1.11076641087309
H          -2.63081598670855   -0.76284332547538    1.24347735969522
O           2.16066527487454   -1.00992727363563   -0.99679768350167
H           2.20013838722464   -0.01783022797961   -1.09245026003943
H           2.90987543434637   -1.35166738246563   -1.48686083852797
O           1.16157862668108   -1.23423150001479    1.64572190219375
H           0.80186929586441   -0.32708676814372    1.68633645141602
H          -0.25186402028854   -2.02741590331857    1.40337332587584
H           1.70508524194393   -1.24700285487214    0.84542185546991
N          -0.55949875956112   -1.00735892424374   -1.21947763114966
H           0.46749698369008   -1.16904752565981   -1.25701397042218
H          -0.95079073039669   -1.51902832919399   -0.39426840745602
H          -0.68577237005823    0.06040237422666   -1.08588514177998
H          -1.01766530656585   -1.29354221717696   -2.07790851485857
