    26
        -50.43883820  Gyration_radius:  2.6148842727 Dipole_moment: 7.854
 S          -2.42488927126665   -1.20274598212079    1.09527202542813
O          -2.33856204944832    0.23032795819840    0.98482668404997
O          -3.45812684568369   -1.73837147477265    1.89950388416346
O          -2.50439409133931   -1.83250457296643   -0.31774685010531
O          -1.02405451966054   -1.70512431945270    1.58885958939711
H          -0.46066488544139   -0.91010011285433    1.80163991690886
H          -1.69036806680110   -1.56481648560351   -0.81949168452413
O          -0.29058150753351   -1.31979003618573   -1.60126332876790
H          -0.16654589994073   -2.09763053481674   -2.14783675518397
O          -0.50456974291901    2.00794952991984    0.20529544267936
H          -1.34494305325253    1.58488243026311    0.45700532482974
O           0.42082379526610    0.39111374145003    2.11428311158333
H           0.04473669773370    0.76409841070665    2.91416299510981
H           0.15817615873694    1.00561757431673    1.38409119083197
O           2.26116319241003    1.86402351066155   -0.55582753336601
H           2.79077376691778    2.66146112624469   -0.51725724846197
H           1.41750720119018    2.07124359557504   -0.12607473151155
O           0.03554366701416    1.32554887679267   -2.34502858024186
H          -0.45729685147419    1.87485888447007   -0.76785070945552
H           0.98566453200685    1.38992477089941   -2.19323646865246
H          -0.19358360961178    0.38729706403415   -2.24732782023770
N           1.84467683009423   -1.04743298500946   -0.11935224524178
H           2.21035323710335   -0.12081240016061   -0.32363814929537
H           2.59693054419452   -1.71468876627534   -0.23375192473566
H           1.57107549059349   -1.04619031257446    0.85648823261665
H           0.52115526110826   -1.25813946069865   -0.98574436780375
