    26
        -50.45724312  Gyration_radius:  2.49666274641 Dipole_moment: 7.207
 S           2.34453154481687   -0.15982707456630    0.56891851351175
O           2.20387145317651    0.15307616199809   -0.86882301882823
O           3.57225343745709    0.27110755077903    1.13506816321288
O           1.13668113158688    0.31983508283385    1.26485540413132
O           2.26687158988225   -1.73826354928055    0.66792496826860
H           1.33426749830470   -1.99256232697051    0.54797790201553
H           0.63327484872277    1.55913120009556    0.43006300353252
O          -0.32945186888471   -2.51851908333474    0.27956871376311
H          -0.42941428428948   -3.38323016489783    0.67960632163771
O           0.26007014963199    2.31627420001458   -0.09971540473817
H           1.02560406980453    2.74762867784785   -0.48207855254000
O          -2.27962375194848    1.66512153926318    0.91810696389467
H          -2.66305162922475    2.18159343846267    1.62841134197965
H          -1.41113260128432    2.05535184422004    0.72893121680725
O          -1.48715291102633    1.14756562721146   -1.78183982941309
H          -2.22096914910254    1.09067229437553   -1.16051751547212
H          -0.81805062949872    1.69604736766347   -1.31597619265254
O          -1.19578548490004   -0.70520840466646    1.88949552003390
H          -0.29852879675311   -0.30713278217039    1.88048175371794
H          -1.76839902923763   -0.00297094229669    1.53808220092769
H          -0.76393286032360   -1.86371623440437    0.90909210027302
N           0.16119597853789   -0.92834463608628   -1.89137259727666
H           1.07839993702137   -0.45493067631995   -1.47580485308512
H          -0.57668790519551   -0.17413395549456   -1.93286049106402
H           0.35181146201171   -1.30092453321182   -2.81459133662502
H          -0.12665219928855   -1.67364061107965   -1.24300429600843
