    26
        -50.43819243  Gyration_radius:  2.58056053007 Dipole_moment: 6.916
 S           0.71032308187531    2.57127152799921    0.37197179750567
O           0.35064890067172    2.46423861543881    1.75853051891559
O           1.52731448625842    3.64904653259891   -0.04000503089937
O           1.37552154109969    1.20373639148294   -0.03336714184254
O          -0.57364623483477    2.56319016511603   -0.49951233803608
H          -1.13200958430208    1.78295716769711   -0.23353243055543
H           1.38690646474511    0.65195577884993    0.81230310735403
O          -2.03612632104187    0.46775715271533   -0.01119987628264
H          -2.95230321141346    0.73866555422879    0.06803103100871
O           1.21904258962641    0.01379305559061    2.22610008461783
H           0.96079391952505    0.89811106060751    2.53732462522613
O           1.12017331946272   -0.96462721869004   -1.79992388943963
H           1.31034366331587   -1.57522749394383   -1.07138071094472
H           1.33810995345338   -0.08964495459353   -1.45362815230954
O           1.65402635940989   -2.31040801437682    0.59731318524892
H           2.35774432352455   -2.94999955979956    0.71562967310791
H           1.81462217562666   -1.59408644541059    1.22686794427671
O          -0.93008634628549   -1.40931260872304    1.65258251063932
H           0.37361255160358   -0.50542196822795    2.19906293909413
H          -1.39072969277022   -0.76024700336210    1.09109705255966
H          -0.46412739297076   -2.01113646788646    1.06212756197790
N          -1.62711968216754   -0.61636258341053   -2.32580247006245
H          -0.62345529876973   -0.82290057737599   -2.25135108767617
H          -2.10323069448175   -1.47104665292412   -2.58485094936905
H          -1.92443226801957    0.02713734533032   -0.93422200866717
H          -1.74191657316077    0.04856121097112   -3.08016594543510
