    26
        -50.45870569  Gyration_radius:  2.61742264096 Dipole_moment: 1.545
 S          -1.85656102669753   -1.16218739390266   -0.04841228481574
O          -1.08780821438889   -1.03412000840489   -1.27785203281596
O          -1.00751422118841   -1.42842516950359    1.09804043368197
O          -2.75579438708251   -0.03824577418429    0.14818209621532
O          -2.78273191628545   -2.43804408881226   -0.21846372866854
H          -3.42020701723649   -2.12078110267967   -0.84920028965778
H          -2.02334949525049    1.28618058914102    0.64099864160766
O          -1.55151832562930    2.13262255692268    0.86629493100643
H          -2.23954557221888    2.77533007684681    1.04640994891523
O           1.41235039197122   -0.22455860207379   -1.89389909090126
H           0.61030585739555   -0.77935830251156   -1.88253900065442
O           3.44972566296123   -1.65566869823168   -0.47290096895505
H           4.05623463636667   -2.27196298629164   -0.88429882020943
H           2.95249867137577   -1.23557373784045   -1.18874550987453
O           0.64366702221166    1.69319618070613    2.36284612878466
H          -0.12646793612947    1.95603129491495    1.81592383892698
H           0.27728853036528    1.32567819329163    3.16958184096095
O          -0.54474575502681    1.62856973878679   -1.72092087186438
H          -0.97441557722077    0.75881103527347   -1.66856753010100
H          -0.78717813344168    2.07544228166542   -0.89934558268395
H           1.05523661203524    0.65875933253511   -2.09490505936922
N           1.35807929262975   -0.37627015228651    0.80433385337142
H           1.41870564018564   -0.13817890257751   -0.21518708068504
H           1.29974464415425    0.47833370498166    1.40309844835482
H           0.45226513430726   -0.91065450661153    0.94509233316062
H           2.17173547181942   -0.95492556917034    1.01443533627732
