    26
        -50.44620174  Gyration_radius:  2.53509051726 Dipole_moment: 5.806
 S          -2.37154447966466   -0.23358285213648    0.75634819513142
O          -2.25156192172100    0.03925724953269   -0.65645132840518
O          -3.58800169966461    0.12714420874356    1.38028918432965
O          -2.08136016618931   -1.72150102799383    1.02789696927147
O          -1.14859000503905    0.45555360880894    1.45765679847386
H          -0.94394630404847    1.26873267986918    0.88695260552530
H          -1.16371924536478   -1.98324577906324    0.70642143337367
O           0.32141404967149   -2.43496111773412    0.41075422386749
H           0.42525270360275   -3.31188575280532    0.78597105942900
O           1.36678311448332    1.44102121622998   -1.61477179431910
H           1.73374111685045    1.77587501956353   -2.43339133685152
O          -0.81832098912330    2.28163789795153   -0.27090679009274
H          -1.50994441003702    1.81509262318124   -0.76368551832780
H           0.01539505816308    2.10085697845824   -0.75634762637139
O           2.52273018594517    1.31054062577965    0.84972715323636
H           2.25438935626718    2.14367565498695    1.24121964726648
H           2.20137968976159    1.32486533526469   -0.07066910525380
O           1.29164386424979   -0.73709567073561    2.09928740546124
H           0.45510415472302   -0.27666871797587    2.24857252957197
H           0.79747668115482   -1.80915269746536    1.03920175755041
H           1.88022793551800   -0.07249283965355    1.68219640328016
N           0.09281140123911   -0.79282990483772   -2.05195109249868
H           0.93575014836271    0.54476457493111   -1.82414075153948
H          -0.00964282633182   -1.18625593019377   -2.97872228213112
H           0.43030889670489   -1.52619754157093   -1.43707324491558
H          -0.83777629954760   -0.54314786111773   -1.71438451505752
