    26
        -50.46774682  Gyration_radius:  2.5117533348 Dipole_moment: 3.544
 S          -1.83975469891970    0.53428321331470   -0.02054876305242
O          -1.75490110246103   -0.71389226461408   -0.76343677465064
O          -1.58112494949784    0.37206889875960    1.39498359957491
O          -1.00025531631928    1.56017587768856   -0.62115801427740
O          -3.33280914137258    1.03725232648320   -0.14220086011500
H          -3.44967096055091    1.13139443281049   -1.08235815831584
H          -0.17376682289872    1.04346373467143    2.08927287259559
O           0.69681282458030    1.32259790021961    2.44469635178639
H           0.54121995368591    2.14928564708523    2.90244680719836
O           0.39019006857008   -1.96417153875975    0.24824723194257
H          -0.48364805519679   -1.72268691939877   -0.11253481922262
O           0.11889951003725   -0.94037778825905   -2.70047104651696
H          -0.61876890805861   -0.74993443118838   -2.08945431971671
H           0.37417285849559   -1.84595187746828   -2.50700714111118
O           2.35502110438101    0.56573606174041   -2.54427433238584
H           2.23645284590694    1.35817694281388   -3.06974152261421
H           1.57376926445211   -0.00078766290210   -2.73113091830911
O          -0.26525197970975   -1.54546976693079    2.82069730673479
H           0.37411167611124   -0.93811782478436    3.20440239769137
H          -0.96300764489368   -0.97835384242188    2.45177552645947
H           0.24644301768421   -2.05215522520051    1.21399730683923
N           1.34219607472864    0.48279160246918   -0.07035819363357
H           2.01366710740848    0.59232703862681   -0.85770444759413
H           1.09762419244030   -0.54632906951208    0.05225412452145
H           1.65021718066321    0.86832992618474    0.82780847003678
H           0.45216190071799    0.98034460858821   -0.33820271388078
