    26
        -50.46011900  Gyration_radius:  2.34366948789 Dipole_moment: 9.059
 S           0.33938714916865   -1.58618547714628    0.96359743870567
O           0.99705068704481   -2.33448941351667   -0.09790150488179
O           0.67572686780746   -1.94454080969229    2.30429419384171
O           0.81004593430779   -0.06601185257789    0.75378393183764
O          -1.11300857791474   -1.49997109365488    0.74569878612953
H          -1.80790906035686   -0.72308186204030   -0.39377292612344
H           1.76129528633943   -0.11322098258297    0.52144483749256
O          -2.25390217152457   -0.11851892136724   -1.06069123976051
H          -3.15988982958855   -0.42571333039016   -1.11743942741100
O           0.93856840257054    1.86052097490520   -1.33650784982637
H           0.89371116704367    2.34100562566820   -2.16457845242309
O          -1.13678597731669    0.36829755811452    2.57755121991933
H          -1.27833426582131   -0.42819472417386    2.02181410847066
H          -0.34129676905443    0.14722629412396    3.07071331479286
O           3.15570665085600   -0.81649564741746   -0.20453503494685
H           3.20149746852537   -0.55071676627012   -1.12663372021467
H           2.61094405592249   -1.62706859220823   -0.18548630075842
O           0.40542479522654   -0.64036240451098   -2.05507394652156
H           0.62952451964729   -1.33955823055838   -1.40315355963621
H          -0.55757559900580   -0.58473984844373   -2.04764033095531
H           0.84926881901304    0.90138314914133   -1.57016668098557
N          -1.13071618385189    1.86745997560509    0.36750390636635
H          -1.72933416220465    1.23365961882021   -0.21356567626551
H          -0.21298540692406    1.93457342839999   -0.14673338676236
H          -1.55715271107457    2.77782514069674    0.50336392200717
H          -0.98926107882599    1.36691818108029    1.29411438791403
