    26
        -50.47229283  Gyration_radius:  2.48037979624 Dipole_moment: 2.002
 S          -1.55003052108605    1.47454877702848   -0.78492955394241
O          -0.50555494807811    0.74182144944736   -1.49402108005872
O          -2.40037761434364    0.58701971436702   -0.01827302489233
O          -1.00806735179981    2.57946056748143   -0.01796383246721
O          -2.47409049129901    2.13196982862922   -1.89211745263378
H          -1.98563179671978    2.92194568076285   -2.09753361795017
H          -0.13614270274586    1.94703180763531    1.16612237220444
O           0.09868509285144   -1.87043383299458   -1.72805199655677
H          -0.11205309637209   -0.92927372206064   -1.88264346429228
O           0.47076601321647    1.54963539393517    1.84183436676516
H           0.36335338555240    2.07821264079840    2.63414314122524
O           0.63701821630614   -1.17990274735053    1.99758663558374
H           1.34581791268021   -1.37041542751070    1.35674592922783
H           0.58016506103144   -0.20641504189640    2.03851174792094
O           2.32788485983441   -1.41952005367069   -0.16065375913011
H           2.25800792039553   -0.43588790495423   -0.32998434624321
H           3.24841751339562   -1.65147868248892   -0.28385064229386
O           1.93568307217249    1.13258186030160   -0.51167664470243
H           1.71444720205676    1.46498115824432    0.36905506502838
H           0.97587842598855   -1.86250069878376   -1.30441365729197
H           1.07633342371519    1.08863783010015   -0.98081591061986
N          -1.39348627418938   -1.78143476400532    0.42797983157326
H          -2.05140000343868   -2.50730783051120    0.68615557365233
H          -0.65526090111819   -1.62364199552485    1.17637706605373
H          -0.87465152955451   -2.00208386530112   -0.47568752257719
H          -1.88571084844700   -0.85755014175080    0.26810476647255
