    26
        -50.47421851  Gyration_radius:  2.4348281646 Dipole_moment: 4.557
 S          -1.19661722480296   -0.57145957521943    0.68175772709066
O          -0.44870904949095    0.47485437760569    1.39181924778787
O          -0.95063902318622   -1.87843185604501    1.24096528536359
O          -2.71568983712939   -0.20747966408371    0.84390650262763
O          -0.93448699520389   -0.50551856422088   -0.75013385331364
H           0.36325490087857   -1.65791982696269   -0.63108331956935
H          -2.87219341184957   -0.32177770703999    1.80223485058013
O          -0.84395865289429    2.32108171888918   -0.42668967640277
H          -1.50093064285274    1.85077901259070   -0.94757804980703
O           1.22053615959056   -2.11920643105110   -0.57045270799741
H           1.06491194669664   -2.81775609591732    0.07007053015919
O           2.09818888205160    0.14061035306976    0.66416079059985
H           1.24040337746405    0.28861635393172    1.11405405872607
H           2.02134729640000   -0.75185562253302    0.27184980571913
O           0.69484263609326   -0.36368100619858   -2.90544481120258
H           1.20846067353010   -1.15097681141291   -2.69603911982257
H          -0.08910011957669   -0.42487063794027   -2.33082074024300
O          -2.11018416613417   -0.74199685588023    3.36267931653724
H          -1.65249323175155   -1.44207088259707    2.86608773591876
H          -0.72199228189164    1.75697446612633    0.37102836578771
H          -1.46342121301123   -0.03537197891032    3.45317488635236
N           1.54143904985302    1.65739600964297   -1.39399235824438
H           1.91640376242825    1.11281367604471   -0.54906598065833
H           0.62011638055863    2.07425385129997   -1.07928422692455
H           2.18932743111335    2.36781355071514   -1.71422614284602
H           1.32118335313467    0.94518014609006   -2.13897809622087
