    26
        -50.46838553  Gyration_radius:  2.46200777638 Dipole_moment: 4.940
 S           0.13797477874572    0.60863358541832   -2.07827386967031
O           1.40137225808201   -0.04738790383635   -1.78252878854691
O           0.19302276652100    2.04474946205571   -2.02783870846376
O          -0.21099130224392    0.23452700162987   -3.58661856846264
O          -0.95626216626894    0.02958383832709   -1.30203381995290
H          -1.00402462079628   -1.37777916008565   -0.51261269095221
H           0.27017127294203    0.90389036856698   -4.06145362134623
O          -0.99387276514788   -2.20477351423916    0.03265044973318
H          -1.67317383937187   -2.77360624782594   -0.33141800282683
O           1.43677603187004    0.05328040638545    2.26596457907432
H           1.38127043340270    0.88475968746764    1.74795453515625
O          -1.95772032758791    1.56528438713187    0.59934563954157
H          -2.48396827445168    2.27217612989441    0.22366593142161
H          -1.65308004635466    1.01533907133245   -0.15626427411951
O           0.77938598990997    2.03379640108360    0.59994584433861
H          -0.15934777923229    2.07106951860721    0.84291121212401
H           0.78441091791754    2.11989774700280   -0.36627663904360
O          -1.17410054892538   -0.52561070890076    2.31687799404235
H          -1.57723778494579    0.25855846303486    1.91935844759300
H          -1.21994407844051   -1.21369598303256    1.63693268547237
H           0.50318683812053   -0.14129343847837    2.51414713889138
N           1.65396015406655   -1.59130298868629    0.30143694871291
H           0.77843459340075   -2.13328616585362    0.30308907639089
H           1.62069452778699   -0.96293924461033   -0.55495113338727
H           1.65365168738782   -0.93164665213004    1.17917608114260
H           2.46941127361885   -2.19222406025493    0.27681356313766
