    26
        -50.46838537  Gyration_radius:  2.46195541795 Dipole_moment: 4.943
 S          -0.10299218401495    0.59563219504950   -2.08397325562585
O           1.15891189206051   -0.11343960073869   -1.94631160563801
O           0.01913500246497    2.02820268945977   -2.05433854526716
O          -0.65803299251420    0.23107201023207   -3.53167900811447
O          -1.11237673010079    0.06751518933276   -1.16883489456268
H          -1.11939024991227   -1.33439242466907   -0.36826759970547
H          -0.21038190063901    0.87428244161137   -4.07105831474928
O          -1.07501560734887   -2.15946575309546    0.17811963887540
H          -1.81914898950558   -2.69921645376211   -0.09119689478407
O           1.71524562411809   -0.00198078299171    2.06361194076221
H           1.63003348847133    0.82944396475062    1.54960930259496
O          -1.79571984735381    1.65138551448023    0.83163355134581
H          -1.61415496270421    1.08671976246454    0.04785213444337
H          -2.33729605386223    2.37815774999010    0.52130193037267
O           0.93644155033653    1.99990197128504    0.47693341673126
H           0.03919319470077    2.07967791912697    0.83777559005246
H           0.82109179667092    2.08252432926748   -0.48268111196562
O          -0.89006338116585   -0.46657053872210    2.45209846715813
H          -1.05171943426488   -1.15411039228596    1.78950753463838
H           0.81351832093994   -0.15497492910511    2.43040461529110
H          -1.30629109830007    0.33331096081179    2.10209468675526
N           1.60915427117568   -1.66051034610546    0.10168660658443
H           2.38833031070193   -2.29641974616742   -0.02154130910188
H           1.74918415513766   -0.99880800434830    0.96658372595544
H           1.49367044542104   -1.03398031117469   -0.74887720809666
H           0.71867337948939   -2.16395743469532    0.21954659605041
