    26
        -50.45677769  Gyration_radius:  2.47546516584 Dipole_moment: 5.441
 S           1.12072127103492    0.81230335470159   -1.65116333983604
O           1.14551972289840   -0.59536907560026   -2.03683453164005
O          -0.21364717816366    1.30783862284882   -1.40852056965376
O           2.03609219283741    1.06213823867842   -0.54951638529758
O           1.67481269283218    1.61679630039276   -2.89652212954785
H           2.50129137886232    1.18099735220749   -3.07770807423173
H           1.91241229135964    0.10970658836844    0.68829894275791
O          -2.08752883601118   -1.12785351257324    1.13997999306574
H          -2.58183748813557   -1.62281531602134    1.79367939973819
O           1.81727092193158   -0.55092639509625    1.43382753019041
H           2.66333544052518   -0.55653894657934    1.88385762913922
O          -0.66597252408174    2.69891403226184    0.80344171384279
H          -0.41021460827869    2.23988951645980   -0.02432983676955
H          -1.50540088176681    3.12332325930422    0.61729249547123
O          -1.92437320984661   -0.81572989995142   -1.68082935682628
H          -2.43430266359608   -0.69189286399131   -0.87420601819157
H          -1.36322561216306   -0.02892828586337   -1.75656697648765
O          -0.56465941195060    0.55276372980012    2.40604694110268
H          -1.57394208243518   -0.43302844902028    1.64605005387756
H           0.32810788517943    0.22172774055502    2.22431430012902
H          -0.61723431129298    1.41070404960179    1.93139495416996
N           0.14303514506457   -2.00801455330014   -0.11419751568328
H          -0.82334267737082   -1.72165018034149    0.18170695001180
H           0.82083615913032   -1.69994396206150    0.60896150098028
H           0.18481447269473   -3.00745696213389   -0.28297287284496
H           0.41743192074471   -1.47695438264812   -1.00548479746501
