    26
        -50.45158449  Gyration_radius:  2.7498721514 Dipole_moment: 7.272
 S          -1.17331731570117   -2.38431125028983    0.79984213451741
O          -0.21218148643530   -1.49747159859166    1.43674509447522
O          -1.83217795398068   -3.32550084162534    1.64694245292225
O          -2.37638493910812   -1.35698039350467    0.33733560720721
O          -0.65609411475319   -2.90695185305806   -0.45672521263818
H           0.23163509220484   -2.09893506203824   -1.42351134884392
H          -3.11782654197952   -1.86468251125987    0.64857295786034
O           0.74011689472768   -1.46920033155299   -2.02212289766838
H           0.66168601655740   -1.83046287170334   -2.90561846538830
O           1.19457414882370    0.81196026470675    1.48357024868221
H           0.66865614874554    0.22518196861811    2.04502130993585
O          -0.88237605043502    3.03089007211232   -1.26341429473995
H          -0.31950409390898    3.31176321569135   -0.50979695732248
H          -0.53070120678383    3.46871009182080   -2.03968003714440
O           0.78399977777351    3.45163508671817    0.80835126017318
H           0.56839244393295    3.94244966018279    1.60268113648960
H           1.05729016659902    2.56372422786025    1.09885092919120
O           2.26669298260179   -1.32544837342941    0.36884287869410
H           1.87149628980679    0.20128591593624    1.10610773434700
H           1.45584744307037   -1.67020728819897    0.78895346529266
H           2.11408843941729   -1.42011726592985   -0.57901275232384
N          -0.51510468295217    0.43691335357814   -0.60805376904089
H          -0.01649077651636   -0.15313127523176   -1.31036222235183
H          -0.79358820562241    1.36477160263690   -0.99473295329827
H          -1.32160276660491   -0.09895205859716   -0.26406438905697
H           0.13287428064951    0.59306750507972    0.20527810006705
