    26
        -50.44584625  Gyration_radius:  2.47496109643 Dipole_moment: 6.188
 S           0.15457863859469    1.91950797725191   -1.35668860708806
O           0.60986518499475    0.89538378555519   -2.26879644656765
O           0.11681859076616    3.25693589784828   -1.81697637771563
O          -1.23805611350128    1.49371480327238   -0.81122282095941
O           1.02491717285884    1.81819202111024   -0.07029897127696
H           1.81915779710283    1.17644944272822   -0.32141316167911
H          -1.51682013029799    0.67154788693364   -1.35306814681757
O          -1.03549082432230   -2.16046805926463   -0.05464992968730
H          -1.50138520252021   -2.98028629026465    0.11447767186843
O           2.71559197571216    0.13834778918720   -0.78088246813241
H           2.30304943146934    0.06376062788829   -1.65295175258041
O           0.87061521015432    0.58289390047658    2.38190840838128
H           0.83467907929331    1.14904108207017    1.59108956249525
H           1.60793548727023    0.90021916539393    2.90663748539957
O          -1.58411072036492   -0.59993697165456   -2.18048002895021
H          -0.74258626941314   -0.36893836132910   -2.60451169772699
H          -1.38251605763063   -1.29402796404320   -1.51653679539099
O           1.53490398991510   -1.60832464408829    0.78002425592749
H           1.29253533734499   -0.98289524359665    1.48358446721427
H           0.69434152181489   -1.91646619016086    0.40090686469966
H           2.39965774602232   -0.63760978317789   -0.24089882320136
N          -1.85637624393636   -0.24658347014000    1.55911647279634
H          -1.90628286442804    0.54736734735091    0.92721427720841
H          -1.09724599031600   -0.06032804527122    2.20687946656010
H          -2.71928376646924   -0.28283464892655    2.08645481823534
H          -1.39849299020850   -1.47466202520052    0.59108228697091
