    26
        -50.46051562  Gyration_radius:  2.59662367902 Dipole_moment: 3.807
 S          -0.73663865101901    2.11219725290451    0.74310018752340
O           0.35282743566200    2.10383058296453   -0.21973688611047
O          -0.46648035897412    2.81174755383586    1.95981386266936
O          -1.93989501785970    2.90023489976931    0.01747797880787
O          -1.28197800908323    0.76181443316535    0.92147422070558
H          -1.90064833623488    0.34078823050467   -0.56102684800188
H          -1.98990704366449    3.72982727454280    0.48318654363412
O          -2.08332605022168    0.03772515887554   -1.47918016243490
H          -2.50846639526385    0.78147896928487   -1.90859518088230
O           1.22098952873813   -1.86478697235572    0.64227931217360
H           1.40948757709313   -1.18738055347852    1.31445469016684
O           1.10302406784430    0.38617957050928    2.17045355930698
H           0.20229956168928    0.56629107506055    1.86610270676211
H           1.41496850165967    1.22221299024886    2.52202232461124
O           2.74460167145970   -1.93120506626526   -1.79989873983765
H           3.59000338759737   -2.36684607523016   -1.91148450086712
H           2.43295595154810   -2.15578924268965   -0.91207916953514
O          -1.45358984125345   -1.98123905767647    0.87019621209920
H          -1.97202487178987   -2.05091143017523    0.06486966072548
H           0.30571255921604   -2.15788231268599    0.83469750070562
H          -1.48514958957659   -1.04284605807159    1.11381421406402
N           0.61403361289881   -0.20646687705182   -1.37397207586643
H          -0.35734294626138   -0.33771408483375   -1.70706314582979
H           0.64540057361562    0.77264381572379   -0.96319396483592
H           0.82602978573703   -0.88426129549806   -0.58865459056898
H           1.31311288647910   -0.35964277135594   -2.09905770915543
