    26
        -50.44584624  Gyration_radius:  2.47503486012 Dipole_moment: 6.189
 S          -0.30449079670714   -1.92447281805381   -1.32416311808364
O          -1.27346428789193   -1.02643698265684   -1.90959815410365
O          -0.19353595760689   -3.22997932190832   -1.85833086757499
O           1.07879816656570   -1.21408742888156   -1.33555802504733
O          -0.59488067470347   -1.99139799751276    0.20359518245416
H          -1.53144280352291   -1.53029098462158    0.32935864784450
H           0.95460922156177   -0.35814676263948   -1.88248264475001
O          -2.71940773361897   -0.70483066468112    0.33264611260213
H          -2.70965631332481   -0.55571530312878   -0.62333747326016
O           0.48724430922772    2.32651502626091   -0.29811138729458
H           0.81205203999818    3.22714667110375   -0.26428086486246
O           0.27730663129598   -0.72473609333914    2.48386382789339
H           0.10551716358115   -1.27969438403640    1.70304946663996
H          -0.11377956084770   -1.18221465992336    3.23048550689187
O           0.44010243616058    0.89060534763096   -2.57684673718979
H          -0.43818679664569    0.48576725318706   -2.65458533566419
H           0.38769915871455    1.53516721391026   -1.83867488809815
O          -1.37976733317210    1.26424087156657    1.43226130818310
H          -0.83586226409136    1.73495541129101    0.77812904778306
H          -2.37224343082349    0.12520496232167    0.76165306017694
H          -0.76174343351435    0.70990190890431    1.93792834492025
N           2.23639334267823    0.64246667932830    0.72480941016707
H           1.20251198423799    1.73821398983245    0.10339878699309
H           3.21269373876428    0.86258242861890    0.87455453033870
H           1.84863976503721    0.31017517924930    1.60219688350171
H           2.18489343179626   -0.13093953557486    0.06803939141829
