    26
        -50.45684124  Gyration_radius:  2.39259516933 Dipole_moment: 8.877
 S          -1.54888346329828    0.96832859898712    1.03177749717502
O          -1.20991367305273   -0.27645130042345    1.71812090608352
O          -2.32971786845241    1.89109747470889    1.77730451411969
O          -0.10938917819604    1.65269627693947    0.73071666491337
O          -2.03808646902823    0.69706722575602   -0.32558351445788
H          -1.54681281540397   -0.55189852112720   -1.12997193235943
H           0.42086189073079    1.41286446121658    1.53507258663469
O          -1.06975418508215   -1.20818487879719   -1.72192475999835
H          -1.51463189926124   -1.15224960453222   -2.56941086809158
O           2.26142248441462   -1.31698765181389    0.64776179965134
H           2.94385184392618   -1.97436698127793    0.78547137344844
O           1.15173764289486    0.43747312753591    2.61724580183922
H           0.28252828182178   -0.00465811930970    2.65788696899158
H           1.72269613602145   -0.15357055969326    2.10245105196478
O          -0.69391356089494    2.00902084123037   -2.23424512931482
H          -1.26916383685995    1.61538270075823   -1.54709818201438
H          -1.00198340092319    2.90995872875768   -2.33439168806416
O          -0.09777349193652   -2.37569917260097    0.62157919769435
H          -0.48229474342899   -2.36617101761620   -0.26350392317541
H           1.38335606043012   -1.80719624867939    0.68267629481542
H          -0.59883712645960   -1.68266038594072    1.11376217761852
N           1.09921574460148    0.25126654779548   -1.19531723337620
H           1.78907657580612   -0.30662805920656   -0.65294866612741
H           0.62716538442606    0.91979601061410   -0.53059262643672
H           1.50109481887236    0.78569971858403   -1.95976924457990
H           0.32814881842301   -0.37392921188432   -1.55706909698770
