    26
        -50.46237135  Gyration_radius:  2.50756931678 Dipole_moment: 4.931
 S           1.58307206502991    1.30178403430565    0.79496690452497
O           1.36142203401880    1.66438802316238   -0.58925216620609
O           2.95812144669360    1.18675885677416    1.18531942274151
O           0.95229135278201    2.49488462713628    1.67156133277959
O           0.74284491927227    0.16577975405410    1.19129163757122
H          -0.81148043979929    0.50763207501977    1.31057057153864
H           1.63624209909895    3.15755505206308    1.69400745354201
O          -1.05497062082526   -0.70490659819550   -2.60282819337276
H          -1.95949852911143   -0.96186415695434   -2.78844799453309
O          -1.79537147571006    0.63262021832912    1.28108895428234
H          -1.98999432741417    1.31566053621297    1.92460099955343
O           2.66827384603178   -0.75856285352513   -0.70655133230678
H           2.38835577903657   -0.05808292996583   -1.30476846600732
H           3.07345177882865   -0.28643770854576    0.03305580069107
O          -2.04584502948131   -2.10659906021310    1.14128022753941
H          -2.13401579449244   -1.13444706634913    1.16773781212147
H          -1.93481432151858   -2.38767316395573    2.05105966821359
O          -1.18949066831166    1.55103307904052   -1.30453616622485
H          -1.10199990770094    0.22288035914718   -2.23582225918451
H          -1.59085472047008    1.30633378926591   -0.45598108699392
H          -0.24045479010518    1.70653999847254   -1.11050388970648
N           0.09922196826890   -1.78960172653516   -0.47696414700035
H          -0.67093615577901   -2.20694314116651    0.08314715521443
H           0.48514457280255   -0.99159886504033    0.09509153614334
H           0.87157631253170   -2.42154448530026   -0.66807557644135
H          -0.30029141361059   -1.40558861722032   -1.38104819848516
