    26
        -50.46052544  Gyration_radius:  2.47385399418 Dipole_moment: 8.476
 S          -1.00010673702883   -0.14136104386101    2.02788446442051
O          -0.30497312124110    0.54301815587171    3.07883168942611
O          -1.30656732384553    0.70856260665822    0.86394577779056
O          -0.43154196271294   -1.40044144000070    1.59733769765070
O          -2.43590497079738   -0.50437930049833    2.63400064604622
H          -2.43945267318879    0.00647685920287    3.43725915263508
H          -0.10353279618515   -2.14915527827240    0.26363102168492
O           0.03330175925174   -2.54255310899319   -0.64253419476381
H          -0.02017222084341   -3.49208040591365   -0.52794170440959
O           0.82489842294252    1.02433099110636   -2.38747502748890
H           1.30794107395430    1.19695593241465   -3.19573321393008
O           1.74865323851791    0.79272029475193    1.33445914873387
H           1.13972355625854    0.64004928400121    2.07138220826397
H           1.47163556601853    1.64140361855137    0.94074034749025
O           0.35802325320359    2.68682381050355   -0.08509014354735
H           0.52141628523805    2.30780067627988   -0.95889681550007
H          -0.35690424591368    2.16106828364607    0.30622338938015
O           2.11715487046642   -0.62086475914457   -0.88659921153804
H           1.57346706135623   -1.41362287433290   -0.78694546893085
H           1.41561363787127    0.42787119883435   -1.82454660145705
H           2.09880097855907   -0.17252693665828   -0.00911325304788
N          -1.26412519315426   -0.34823087672666   -1.47757625831192
H          -2.16780796362139   -0.35419958772557   -1.93653803703772
H          -0.56098510653087    0.22574899150714   -2.00152697730530
H          -1.33792091830449    0.08379385677926   -0.48508869084094
H          -0.88063445026843   -1.30720896795855   -1.35008995541896
