    26
        -50.45195835  Gyration_radius:  2.47879167213 Dipole_moment: 9.587
 S           1.89862047450703   -0.96901855349794   -0.91626022614493
O           1.71502974114648   -1.34148118661356    0.49291124927243
O           2.87554648010140   -1.72789969347221   -1.61400606470608
O           0.56172770576485   -0.94087635806866   -1.55887249974997
O           2.36689973804571    0.54390851722363   -0.90501203790925
H           1.59223904189588    1.07322123229676   -0.65452697031771
H          -0.35716204583931   -1.41813608490762   -0.48331571294330
O          -0.95538613434050   -1.68144972249558    0.30012862919634
H          -0.42878133133244   -2.34922711838080    0.74772869180898
O           0.18490918610578    2.13319766872771   -0.38493492595042
H           0.43936329093750    3.02922974525013   -0.60662864556279
O          -3.07039166174366   -0.30890279054069   -0.81548643593576
H          -3.64495434284034   -0.81725767449705   -1.39006633470011
H          -2.44951242565108   -0.94011502947955   -0.41859231778217
O           1.83554443720235    0.13629997499998    2.55639428874791
H           1.94421215470015   -0.40653513255159    1.71921181300821
H           2.15909930647270   -0.42049935874669    3.26577865506562
O          -1.10417154216950    0.98235085686441   -2.26339084171599
H          -0.47365303003038    0.23049840945958   -2.25229596569156
H          -1.91169919856130    0.64017066494899   -1.83688368422248
H          -0.34869050021977    1.77447956978690   -1.17115507538283
N          -0.59022521025028    0.56560936887847    1.65805357391186
H          -0.79212289012477   -0.34978007498886    1.14674023232211
H          -0.39549994915371    1.29120658673193    0.93743561062520
H          -1.36614121797111    0.83931599039863    2.25065580021474
H           0.31519992336145    0.43169018267131    2.19638918454161
