    26
        -50.46151609  Gyration_radius:  2.63592760074 Dipole_moment: 5.361
 S          -1.34890940246566   -0.80917119435311   -2.11814027889627
O          -0.10370668124049   -1.32816004992488   -2.68296039770763
O          -2.14331904106226   -1.77303955104658   -1.42063117248962
O          -1.05854520326027    0.39320492452643   -1.31916860779412
O          -2.19896010701810   -0.29806147656265   -3.35847099106137
H          -1.59064387644005    0.27007342237441   -3.82117171625631
H          -1.32068536575751   -0.20343717578216    0.16330162957164
O          -1.46200497891347   -0.78027126369960    0.95242724711137
H          -1.98696504122650   -1.49533469251513    0.56881679033055
O           1.15644251810289    1.52583838755226    2.02329010515615
H           1.56500133736291    2.22681863430472    2.53230126061526
O           1.17117481949774   -1.19733740317993    1.38570860888571
H           0.19473011996249   -1.21490725760880    1.29681238193482
H           1.36511594480252   -0.31516517210756    1.73932336092112
O           1.16510255382629    1.76489288148942   -0.74868418133146
H           0.26826593298564    1.46984595901941   -1.00364282520466
H           1.15427943536505    1.80653079687618    0.22433754993208
O          -1.32123187359147    1.07339513300810    2.90121159467816
H           0.22520614126382    1.45241461279137    2.34310430302466
H          -1.56060293054881    0.43572278043556    2.19930615405706
H          -1.41931822510715    0.60404562592613    3.73149472113788
N           1.88097282620551   -0.73724106063040   -1.12543580081365
H           1.10335485702750   -1.05652190352448   -1.78604283085251
H           1.79834699209884    0.32064208210970   -1.06811725452364
H           1.67874286434063   -1.09377850123513   -0.14936546431915
H           2.78815639381330   -1.04099852823328   -1.45960418610382
