    26
        -50.44413445  Gyration_radius:  2.5314405714 Dipole_moment: 9.218
 S          -1.20155785169994   -2.07540589774728   -1.30582763666569
O          -1.93390855289397   -0.81970522331792   -1.61676589714989
O          -1.56157999933248   -3.18579817064130   -2.11313110486118
O           0.32095647965880   -1.71294005805366   -1.56614069303344
O          -1.27096311717797   -2.31391061514163    0.14160686265035
H          -0.29682242123199   -1.60450201924485    0.99728311642044
H           0.36714931529817   -0.76818173249656   -1.83482835459319
O           0.26706880683793   -1.03275321892394    1.63126724989505
H           0.42174928376978   -1.59476687861129    2.39226500382704
O          -0.24145343083490    2.68007246568147    0.06691643787370
H          -0.18073965910841    3.63542693449573    0.05368853129767
O           0.87078850178952    0.86373280908480   -1.80712062528380
H           1.60119649535514    0.62393509436978   -1.21051476061140
H           0.35115078736077    1.53812434691388   -1.34863207407735
O           2.46799621238774   -0.51196455085575   -0.02354439684009
H           1.71390927625526   -0.84954327080557    0.49259955140081
H           2.63469789916975   -1.18469783054532   -0.68775681953112
O           1.45401790961823    1.49995496369043    1.70954597946881
H           0.43332794198377    2.35234579780558    0.71505557831670
H           1.00018403115407    0.65515834805064    1.86085972713370
H           2.26229461953814    1.25830322384174    1.24416649808435
N          -1.90458541834693    0.53515331648047    0.47509633994302
H          -1.31626898248622   -0.00112626447078    1.11887638018788
H          -1.94961043757554   -0.07887829399422   -0.51843439829134
H          -2.84093901410150    0.64143724887964    0.84716356679226
H          -1.46805865538798    1.45052949555622    0.28630592764740
