    26
        -50.46047173  Gyration_radius:  2.38004738148 Dipole_moment: 7.202
 S           1.92969454443923    0.43635667931410    0.30730325361738
O           2.16808930540311    1.47046268597309   -0.67195614174685
O           3.02170291807124   -0.41448649166907    0.66570225701798
O           1.20814857278908    0.95554985535900    1.48965299984129
O           0.84738906998517   -0.54231452545508   -0.38331345805531
H           0.56293312786334   -0.13641846608628   -1.22601889042253
H          -0.26279107013663    1.26855336369661    1.32516732372634
O          -0.27850397418434    0.40861736308869   -2.62270805004089
H           0.35735601370804    0.55949061129629   -3.32418514926419
O          -1.26191604743605    1.38758373786906    1.21392294576263
H          -1.54214664108853    1.92224743648889    1.95850714281542
O          -1.35751880796227   -1.91574739442251   -1.57804579586844
H          -0.54669207089130   -2.41853236138443   -1.68842138494466
H          -1.20059524545948   -1.07392996154532   -2.03978232349736
O           0.97844311089579   -1.53173719900334    2.17281004056850
H           1.11133636637017   -0.55687314954410    2.14404870223637
H           1.74324357399512   -1.83963768123589    1.67195050277920
O          -0.19839629561781    2.52997640786727   -1.15623346235194
H          -0.38793272361241    1.29510204347521   -2.16695004182705
H          -0.70863979500180    2.32611742176384   -0.36000315021939
H           0.74066720195900    2.32049306684474   -0.94154873934500
N          -1.40791849739859   -1.30552791135541    1.04922809762705
H          -1.41323580168889   -1.56680136013921    0.02865196918223
H          -0.44331260330033   -1.52291203591591    1.45795371167255
H          -1.51931873159845   -0.26575899278992    1.11624448031174
H          -2.14008552010861   -1.78987312250451    1.55802318042594
