    26
        -50.46029183  Gyration_radius:  2.46834275156 Dipole_moment: 7.508
 S           0.90789203602571    1.83426963929944   -0.92253745281233
O           1.75587966591234    1.06710428054182   -0.00900752679602
O           1.42284515565950    1.92334113304083   -2.24942001889508
O          -0.46326827333212    1.27522975100102   -0.87710575221729
O           0.80048060291235    3.28741487799645   -0.32270133519542
H           0.47050769611139    3.17918959369998    0.57401168404240
H           0.04394406467759    0.01871565503429   -1.86539414095865
O          -1.83449609733430   -0.82675165031663    1.87337133946592
H          -2.32405173346770   -1.56480281516239    2.23842259198299
O           0.42941408184937   -0.72105511351838   -2.37430242937009
H           1.09182397316691   -0.28315115402045   -2.91722415552528
O          -0.59449735699032    1.83087643683280    1.69714046097056
H          -1.28388213138565    1.33960863999462    2.15298600631962
H          -0.68721363617129    1.59633196715560    0.75545572583352
O           1.21084549417942   -2.55657993126972   -0.61653177008578
H           2.11679271457216   -2.76095826978430   -0.85403402150879
H           0.88692164088902   -1.93518319650440   -1.31378654319666
O          -2.34239946084055   -0.63220320986923   -0.71588103751417
H          -1.83618050727455    0.18744054719147   -0.85774871980307
H          -1.94930564696126   -1.27398406501087   -1.31325652399640
H          -2.11609402427409   -0.74921210847193    0.92715847265301
N           0.85399119533546   -0.85941318230142    1.42382476937007
H           1.42020274349523   -0.97813889074484    2.25650738708919
H           0.99539651095538   -1.64450987821712    0.74117220529090
H          -0.15544651282148   -0.78158715822763    1.67353629538014
H           1.17989780512747    0.02800811164163    0.89534447949071
