    26
        -50.46696591  Gyration_radius:  2.45451151969 Dipole_moment: 4.673
 S           1.98462848210828    0.26345122386760    0.75680762884255
O           1.18047547256806   -0.90097512707039    0.31263822637168
O           3.12930526896819    0.49859276100762   -0.06181033656208
O           1.10491348600949    1.42019087638008    0.90541134673444
O           2.47968556993642   -0.09837977365697    2.21009742227628
H           1.66903352183630   -0.20846778424827    2.71863949529152
H           2.41840971335621    0.34951053177561   -2.00291215082178
O          -0.13192047302875   -1.06702437234040    2.53434322528696
H          -0.12752107549809   -1.97490101400249    2.84530728703538
O           1.65308360577581   -0.19642846462382   -2.22054350137605
H           1.51703244223300   -0.69551260379181   -1.39596492786426
O          -2.43246582773564   -0.35579733805747    1.19492546369691
H          -1.77271773825488   -0.54226487235286    1.88716126184409
H          -2.22084303496360   -0.99287088215952    0.47582074096758
O          -0.81921386317004    0.61184194539425   -2.58424691742985
H          -0.96329987176347    0.84235778953386   -3.50267661693560
H           0.13704135348206    0.35523377043012   -2.50816460430024
O          -1.24134903660842   -1.62536639429210   -0.82447686478501
H          -1.26575349169662   -1.05801751670713   -1.60526623826921
H          -0.34554653557571   -1.52806435346461   -0.46412515593308
H           0.31276773509742   -1.07507750453597    1.65164518586030
N          -1.27146555898633    1.61680880478138   -0.07516203922334
H          -1.85389141455888    0.89525112767290    0.46576868362725
H          -1.21746838922815    1.34462142170533   -1.07304319025053
H          -1.64452381619932    2.55332055868374    0.03065712703462
H          -0.27839652404658    1.56796717011938    0.32916943892713
