    26
        -50.46696596  Gyration_radius:  2.45440144866 Dipole_moment: 4.669
 S           0.95484863503269   -0.94653550752851    1.66437688440600
O           0.37112541874135    0.39429902584558    1.41722570952369
O           0.26242024604160   -1.68199946635822    2.67214141948240
O           1.08602985394893   -1.65056499324038    0.39113717358722
O           2.42510757388619   -0.67753441830798    2.16832280356140
H           2.84806759247503   -0.21529505691695    1.43667409831471
H          -1.73958392186078   -1.44115692740067    2.20655951100927
O          -2.06217286391846   -0.66236188091521    1.73677380667731
H          -1.28544286318792   -0.07607796430347    1.75629688427487
O           2.44609133975638    1.25597925391719    0.13754034036984
H           2.70383909862471    2.11446807867765    0.48029612313550
O          -2.61113465672851   -0.47405550116831   -0.82469785532837
H          -3.52474897422110   -0.71081078605745   -0.98778764753839
H          -2.45949098630953   -0.60405328013659    0.14804822997497
O           0.93744978322801    1.38044150121234   -2.16505441077850
H           0.20660593084760    1.81772926188179   -1.67270137327890
H           1.67729926805552    1.35602721590709   -1.53163661867540
O          -1.02930915004075    1.89934626494405   -0.44142354440439
H           1.61025415252687    1.01137717681303    0.60499995233024
H          -1.77529477048342    1.31879412108249   -0.63764190378149
H          -0.58050618289203    1.49345350320093    0.31731858170857
N          -0.10343128066382   -0.99354835446562   -1.79989192133736
H           0.38986090661254   -1.29930219827549   -0.89690683719888
H           0.01959001739117   -1.69723203616324   -2.51899114150618
H          -1.10553550248336   -0.85452685199415   -1.57799213970222
H           0.33806133571473   -0.05686020030991   -2.08298614483031
