    26
        -50.45316402  Gyration_radius:  2.76371692205 Dipole_moment: 6.492
 S          -0.63090892943274   -2.95635005254803   -0.23508636813022
O          -1.31857205076724   -2.39286252048388    0.92827643347253
O          -0.29244075701494   -4.33691706578126   -0.12881344895979
O          -1.72197405946544   -2.86544243065530   -1.43542284272771
O           0.43488643674775   -2.06010381426757   -0.67957198028230
H          -0.33772174493636   -0.94449723683318   -1.58859534396660
H          -2.05001850240358   -3.75843166433645   -1.43918962160354
O          -0.90787682301579   -0.21322230056151   -1.93551870632768
H          -1.60821640425014   -0.66190810346355   -2.41279430099509
O          -0.32192337068735    2.88775058741780    0.71783548161450
H          -0.38363273069616    3.84250516881733    0.75760924994494
O           1.78288287880637   -0.01747061972460    0.42485323784251
H           1.58104854144708   -0.89795550461762    0.05918619371790
O           1.04165899749154    1.74272195426120   -1.43806492432216
H           0.42124631348409    1.18164805520579   -1.92210426144085
H           0.50223497511294    2.26250199663487   -0.81774163818655
H           1.75152179771272    0.59700201593693   -0.34655707501517
O           1.67530766574077    1.95849268048539    2.29353222178938
H           2.51257016060200    2.40989488838951    2.40968281296741
H           0.37793073467307    2.62834176948582    1.35432517405037
H           1.87165057762274    1.14991048678530    1.78794326252927
N          -0.89725534614313    0.11417367278747    0.75257073779764
H           0.14905440478832    0.16887938926180    0.81998998392755
H          -1.13716655736083    0.28814870884813   -0.24095403871161
H          -1.15636916276759   -0.91872278173433    0.94808534477513
H          -1.33791703534771    0.79191274066791    1.36652440622476
