    26
        -50.45729997  Gyration_radius:  2.58923830419 Dipole_moment: 4.945
 S          -1.40861621293419   -1.42410307089676   -1.42697105526795
O          -0.21038806395859   -1.64048756665238   -0.60907879551729
O          -2.09332567363782   -2.61019540749312   -1.82596503527944
O          -2.42996027405762   -0.70301534625800   -0.37971284169602
O          -1.16498410727089   -0.43918009645500   -2.45995100965893
H          -0.27062874295962    0.80359181836519   -2.11861366015754
H          -3.21138907910058   -1.17076779284220   -0.65094778481030
O           2.94776175235913   -0.50419028848558    1.29551519004163
H           3.61135190879631   -1.19512489899823    1.30749417888778
O           0.26488006789087    1.60410173431135   -1.85124740581405
H           0.30738194884773    2.15714897114535   -2.63292981868576
O          -0.52188576346855    1.56053498322309    2.36928211497045
H           0.17728135359337    2.21308133994900    2.43736823799648
O           2.08603046019760   -0.34835888214443   -1.16298188030355
H           1.68861944736569    0.50130350743735   -1.41366007566378
H           2.72787164956482   -0.35929569523605    0.33234016850732
H           1.32152408112596   -0.95196725488604   -1.09415181077317
O          -1.65156678869638    1.95558304007603    0.04797138585393
H          -0.92553154484600    1.99708559244146   -0.60456760940013
H          -2.08893709509877    1.10865242240965   -0.11598554398244
H          -1.03057115970267    1.78781682969832    1.54300148258722
N           0.36615760514034   -0.87852545290221    1.81983407882390
H           1.41562060561118   -0.78983635424096    1.74996214376648
H          -0.02908058508401    0.07269600819113    2.06893286819363
H           0.02353977947093   -1.17918736579142    0.86090744882086
H           0.09884445086373   -1.56736075399918    2.51415501857547
