    26
        -50.45319307  Gyration_radius:  2.55942550502 Dipole_moment: 7.130
 S          -2.12415197412595   -1.48943900001930    0.36067091777354
O          -1.44282389422300   -2.65912855744831    0.91000612809790
O          -3.51660755476310   -1.61956340412268    0.10081016806426
O          -1.93802811645154   -0.41080016642045    1.54561821475008
O          -1.35092616789955   -0.92961241099066   -0.75757260854677
H           0.15088133735386   -1.22965097551311   -1.20588464212772
H          -2.48564016204692    0.33298661080849    1.29929964288501
O           1.11446129075949   -1.44816469381014   -1.33679965965980
H           1.14891337296026   -2.04200190824753   -2.08743342754171
O           0.43017995162161    2.63636132885525   -2.09759348696115
H           0.34580830294056    3.58769729716461   -2.16367996699606
O           0.86838579258683    1.11003602079594    1.44180176961434
H           1.28412407111641    1.70445971511782    2.06650045438506
O           2.17420424755997    1.06448481332046   -0.79007142543489
H           1.93939750542754    0.18923376850487   -1.13781000944309
H           1.67906503786949    1.69717611652983   -1.35192198469660
H           1.42108407533005    1.14109934359217    0.59905230895640
O          -1.29729446757904    1.67623811623832   -0.28905052896021
H          -0.31251755796608    2.32885209707492   -1.52644608690074
H          -1.39826703553722    0.75781840234270   -0.61137445169841
H          -0.67433968503973    1.60436418899971    0.45089178660033
N           0.82077267851734   -1.60148331207779    1.34053987537808
H           0.69959403463054   -0.58817256760982    1.55869668265713
H           1.23356920256698   -1.67031456210520    0.39064895709713
H           1.39499785843265   -2.06252502202509    2.03817842738389
H          -0.16484213404439   -2.07995122895450    1.25292295532156
