    26
        -50.45729978  Gyration_radius:  2.58909813425 Dipole_moment: 4.941
 S          -0.10105315163914   -1.22513422891277   -2.13031092904600
O          -0.10703702189622   -1.60818561419097   -0.71437286627887
O          -0.51716151416965   -2.24491769732329   -3.03683965045814
O          -1.29091124321978   -0.11176098264934   -2.20313192146645
O           1.11039546155590   -0.50984611074302   -2.47281476312887
H           1.70643554247841    0.50226533534779   -1.43250089675271
H          -1.65795380641155   -0.39839475353349   -3.03143388916608
O           2.03009919574890    1.17164851365862   -0.76458749572889
H           2.81121455517190    1.56688824532332   -1.15491562874857
O          -1.69341586930474    1.99266472646652    1.21972306339177
H          -1.16427051694921    2.44625162414249    1.87821747074467
O           0.54241532056535   -1.02345504117802    3.04392757163348
H           0.71986468754224   -1.84865009782187    3.49728264486080
O           1.99285836691717   -1.04531109670380    0.87430951215116
H           1.20093341982808   -0.98146364327547    2.29450176654703
H           1.33460511225742   -1.41636792864716    0.25578703200022
H           2.19743630765063   -0.17336597390002    0.49949584076819
O          -0.43292006351744    2.29303102977941   -1.04786624635881
H           0.49707260688968    2.04527664155130   -0.87959811148781
H          -0.79277534916144    1.57032619785449   -1.58060116201026
H          -1.28114556558801    2.20990299035192    0.33882257556760
N          -1.44207813649256   -0.64702687180960    1.31180637240580
H          -0.98077852401341   -0.99706548818463    0.42185840607802
H          -1.59586417117346    0.40011964290569    1.25830225691964
H          -2.32229856859601   -1.12867399306232    1.45759045955753
H          -0.76366708462849   -0.83875542572742    2.09734858789557
