    26
        -50.44706718  Gyration_radius:  2.6339140998 Dipole_moment: 6.413
 S          -2.74115107876329   -0.39491651572121   -0.81592973850194
O          -1.96305430665498    0.37000902607136    0.13906614589513
O          -4.08799451891743   -0.01433442539300   -1.00334905175446
O          -1.97072802532330   -0.37837499232720   -2.16097621220386
O          -2.68083730067925   -1.89240290248701   -0.40886648810000
H          -1.74857512612612   -2.07099224524315   -0.14580503702431
H          -1.17792164901324    0.24404326375481   -2.16638513799353
O          -0.18715483338207   -1.56459109487999    0.30011428839796
H          -0.64917509644751   -0.70828131366928    0.37459803754564
O           0.12138769578785    1.11731556948353   -2.29566710787505
H           0.33398227507693    1.15759157485858   -3.22980035283575
O           2.06807866252519    1.21781236233205    1.15523306083968
H           2.71978531716551    1.91175493980421    1.26223551679782
O           1.82156333803398   -0.37669571629345   -1.06266267650636
H           0.83244894704660    0.53852503676330   -1.86551967847683
H           2.10227146563916    0.15603294952044   -0.29439362968015
H           1.19297053580110   -1.02598613372129   -0.68925941660136
O          -0.12461636955784    2.36911900819501    0.21135883627409
H          -0.89044274138775    1.80144479338724    0.39237339902197
H           1.22651723815559    1.67390784438838    0.89496928549739
H          -0.00752655949890    2.30617467453622   -0.74575364473301
N           1.22296690639684   -1.29940411590630    2.55132982888530
H           1.62891842277129   -0.41245942365902    2.26137666353008
H           0.28870775813351   -1.66097851626073    1.16836145683642
H           1.98114018879730   -1.92974642156358    2.77868544098194
H           0.68843886445904   -1.13456723644019    3.39466621198654
