    26
        -50.44126219  Gyration_radius:  2.58857188305 Dipole_moment: 0.770
 S          -1.52093729898371   -0.22921855226026   -1.92874579682344
O          -0.25848151024863   -0.91131959522663   -1.78253402344888
O          -2.49380261113416   -0.48157262098345   -0.92066107543787
O          -1.28486437498256    1.24894248933193   -2.14546841512088
O          -2.11738063439962   -0.68052855102668   -3.31385925353563
H          -1.39629660886656   -0.63839250277718   -3.93764947352086
H          -1.40204972425392    1.82359746525911   -1.21774632862038
O           1.90637866912443    0.44648632651298   -0.75896952848868
H           1.20139598123990   -0.00699812597242   -1.24378773443059
O          -1.45915743713472    2.54475935517142   -0.07337862602787
H          -1.34615985683177    3.46988830356791   -0.30687220551796
O           0.03441457689893   -0.31568196594412    2.58840990286897
H          -0.68326857929555   -0.19270788622463    3.21098713087731
O          -0.86964609983678   -1.92666635251393    0.66492497671265
H          -0.29695146889759   -0.94879613507967    1.90664922285901
H          -1.72443113848899   -1.56062025268339    0.39288532780731
H          -0.32426489449520   -1.80697617037644   -0.12551738663453
O           0.66521315416249    1.86043538961430    1.08376766320470
H           0.47925190282372    1.13561048653394    1.71372049426670
H           1.20887735856627    1.44101587086293    0.36654837716504
H          -0.59871832153820    2.27393686189195    0.44965498858319
N           2.50590043616854   -1.41306151715739    1.16179467375131
H           3.44482781628643   -1.56316489767671    1.50796917789172
H           2.26985510388936   -0.22887745333258   -0.14172338644449
H           2.10812388476301   -2.31530247146447    0.93149866789160
H           1.95217165639266   -1.02478748479637    1.91810261155496
