    26
        -50.44126227  Gyration_radius:  2.58885437884 Dipole_moment: 0.770
 S          -1.80313562289460   -0.68163753666038   -1.54070649572481
O          -1.39754572574953   -1.41032037489634   -0.36389117232679
O          -2.26145242961797    0.64955004055827   -1.33047200721723
O          -0.71924068595429   -0.75902125600708   -2.59284871739374
O          -2.96998695187720   -1.50715710767929   -2.20022024954710
H          -2.68650189206837   -2.41845987408649   -2.18994760527757
H          -0.08718846774809    0.13789589748634   -2.59738768484935
O           1.28009825355537   -1.64861504005262    0.22903213410151
H           0.34858343813991   -1.69310394342741   -0.03170614748011
O           0.75772361110484    1.19599048187396   -2.56924242810018
H           1.37941367546958    1.09095119092418   -3.29424092950968
O           0.69435876028134    1.98957188240723    1.53687662673464
H           0.52678725365407    2.92459935512075    1.41235444166779
O           2.06797919610046    0.76619841026725   -0.46690930700660
H           1.67029040653450    1.26197640780353    0.27659391957426
H           1.88973241141021   -0.18846153722641   -0.26028916587335
H           1.31130927360726    1.06600613194024   -1.69542259342817
O          -1.64644529068463    0.73609489009192    1.28773861845297
H          -2.04475201398504    1.07593367845623    0.47255176694108
H          -1.48186764497225   -0.19345461467773    1.07452854638824
H          -0.18476380396816    1.54231739032845    1.48738845869953
N           1.06230095754323   -0.76418632538560    2.81312857553108
H           1.26809934851731   -1.47663278946121    1.19827678164537
H           1.22418401545001    0.22286086233939    2.64299810303960
H           0.11270837108198   -0.85846928472064    3.15176750293262
H           1.68931156702566   -1.06042694539742    3.55004900810572
