    26
        -50.45288107  Gyration_radius:  2.717600425 Dipole_moment: 5.365
 S           1.32694590823587    2.53012778280580    0.28919864302367
O           0.14611301936237    2.68412461769330   -0.56738634507278
O           1.08650706053097    2.82197290202126    1.67022676572658
O           1.91702784481038    1.19856261393730    0.08371492243272
O           2.39243012852454    3.57269372244018   -0.25567610920835
H           2.43651667083549    3.39560693221718   -1.19138147634328
H           1.34434198789414    0.44525903761910    1.49736906530115
O           0.69919048503227    0.20154940393564    2.19904455204716
H           0.69201796017089    0.98877665613107    2.75559493404183
O           0.89125010590289   -0.93041786084809   -1.16575329755294
H           1.46021239014096   -0.19274929769515   -0.86621571975508
O          -2.34080584407156   -1.95441882918867    0.13019679864898
H          -2.88895114178313   -2.72754588590854    0.26950761264755
O          -1.39678960529299   -1.74928281574913   -2.41772928620790
H          -1.59221562393437   -1.22707613041878   -3.19669862143370
H          -0.46631649641997   -1.57821146440869   -2.19313122609965
H          -2.09291957635625   -1.96483323159417   -0.81489784318829
O           0.31362800244741   -2.35198968509676    1.02597279783278
H          -0.64580357283181   -2.29628669545268    0.88432277128735
H           0.92973840549074   -1.60236832345308   -0.44834283135293
H           0.52701130667468   -1.70730335793093    1.71161384284798
N          -0.99294928705462    0.49105886105429    0.12129610985007
H          -0.72847519369881    1.47950332540188   -0.19134602328391
H          -0.58404345286650    0.35956561634061    1.07534264023279
H          -1.98433439410045    0.26599014825294    0.10604124895706
H          -0.44932705754565   -0.15230804211153   -0.51088393541689
