    26
        -50.46172233  Gyration_radius:  2.51999759113 Dipole_moment: 6.737
 S           0.55049925307394   -0.37033215939289   -2.14802613068852
O          -0.67144291369255   -0.77160107929492   -1.41824390919528
O           0.26427995652123    0.31860004170485   -3.36702169078192
O           1.42604790886655    0.38385970146319   -1.25095605832070
O           1.28973985482209   -1.72159391108098   -2.48294628229789
H           1.34942920688716   -2.20815276668060   -1.66002916426714
H           0.90702721046928    2.04659241182322   -1.56780903068726
O           0.16768307201097    2.60718125973550   -1.87375148824372
H          -0.02926521327920    2.21752356332511   -2.73816933762719
O           0.24836082966321   -2.41178074164831    0.44416676262235
H          -0.18861906423675   -1.90031634326433   -0.26528471915426
O          -0.20231348277822    0.99189891313287    2.21074010452061
H           0.14670931709735    1.70276111784409    2.74969838663271
O          -1.33314967010982   -1.56170748801332    2.56997431518354
H          -1.03984465491238   -0.63761078163769    2.53500427124206
H          -0.38910552837091   -2.38525187906394    1.17820478355260
H          -1.08247889466722   -1.89788365172533    3.43182183296711
O           1.75144609443336   -0.34847160826723    1.25504410092942
H           1.35866369186797   -1.23799532001476    1.11478901397034
H           1.81228889394941    0.01214169564038    0.34542775855203
H           0.61074080795578    0.47987111601217    1.86587916044888
N          -1.41608110647749    1.35772747825064   -0.16835578682845
H          -2.41023722133820    1.55499855142100   -0.12887115453297
H          -0.89275314819955    2.04856822564917   -0.77936410110578
H          -0.99785316373367    1.31491699375624    0.79228557406879
H          -1.22977202582557    0.41605665033576   -0.64420719096793
