    26
        -50.46911917  Gyration_radius:  2.40723919861 Dipole_moment: 4.348
 S          -1.74558981614357    0.18133405475303   -0.19756282132447
O          -2.67072629080655    1.11705390243257   -0.77946555918695
O          -2.28558738854252   -1.13655963577837    0.10120958609843
O          -0.61998346313183   -0.12787931000825   -1.28197409628621
O          -1.02747186073911    0.74499360747708    0.94770608418702
H           0.07251367423384    0.01260471862905    1.73849305555080
H          -0.07618158368825    0.69458594516701   -1.33002466096765
O           1.34845109261332   -2.06592848239391   -1.36476131623836
H           0.68287673025245   -1.56840105555656   -1.85632943054733
O           0.80282460700573    2.07535857190684   -1.27068940117372
H           0.95008912020019    2.47847514544819   -2.12853786806378
O           0.78888311860326   -0.51728973459591    2.20324990915231
H           0.80889275885715   -0.20129871520589    3.10719141911164
O           2.38370082448705    0.00901226095246   -0.04334765994286
H           1.91286417692265   -1.37092252587210   -0.94751924347991
H           1.97715324303964    0.80534010193227   -0.41059868221963
H           1.98165695552785   -0.11944140518651    0.82965664822345
O          -1.25340927560243    3.24016154694534   -0.19031986468348
H          -1.91050496710096    2.57024537481607   -0.49300053426450
H          -1.15877402788856    3.05515030673251    0.74872481085007
H           0.08910480083386    2.62027189838424   -0.82526677902257
N          -0.20873804802878   -2.52965879813329    0.70185207827789
H          -0.39308194748107   -3.48603037434885    0.98403400184775
H           0.44025058278497   -2.48343626295330   -0.14824499350331
H          -1.12435986444254   -2.01583284102909    0.44330777532940
H           0.23514687824136   -1.98190829452598    1.46221756227054
