    26
        -50.44980675  Gyration_radius:  2.56473897497 Dipole_moment: 6.683
 S          -1.71924200193487    2.07761971663424    0.20365363763188
O          -1.67997257532932    0.59682207924228    0.17710866238485
O          -3.02974730380225    2.61676806337210    0.04325950931757
O          -1.26919771682256    2.44682359941542    1.70065241985805
O          -0.67546871191702    2.60165195767292   -0.65154250743782
H           0.69392194290709    2.21324403520998   -0.01392035527020
H          -2.10398651494247    2.67480652966192    2.09490972784685
O           1.57048714857620   -2.05950918942277    0.61430546804716
H           2.27172512525809   -2.35632382284500    1.19483595879900
O          -0.64072961356551   -0.45961055592025   -1.83035801472643
H          -1.11104956493564    0.05926066106853   -1.06689342307901
O           1.56603943184689    1.91382657711440    0.37073203670737
H           2.10598988843196    2.70293893606274    0.42942115597561
O           0.31731133825275   -0.10567223463173    1.79073454560031
H           1.06495246002035   -1.36181815196042    1.12491636421145
H           0.87104706310502    0.67065656148318    1.61642344373852
H          -0.51597357765301    0.09214238793446    1.31726458015994
O           1.81201325938788   -0.15230371222886   -1.32839137686082
H           0.37938982755111   -0.25560090160627   -1.73271531582209
H           1.84586077527330    0.65472709649119   -0.77111017565032
H           1.90149570606553   -0.90343522930809   -0.71026300102224
N          -0.74650054953227   -2.82894729715179   -0.90250361022941
H           0.10237607529627   -2.82991934788159   -0.33709177180557
H          -0.73328682609230   -1.47735525262241   -1.52947725997479
H          -0.73414743267380   -3.62877350176677   -1.52068101639698
H          -1.54330765321514   -2.90201898374153   -0.28326965180150
