    26
        -50.45004547  Gyration_radius:  2.53765526476 Dipole_moment: 6.014
 S          -2.23216892336076   -1.35922554352431    0.16704500358420
O          -1.44373576720780   -0.43792254988778    0.95593561658969
O          -3.44397944204354   -1.82517378062678    0.72476062017222
O          -2.50717548851316   -0.70392802429038   -1.21209641771877
O          -1.33713709145426   -2.57777106349286   -0.18271379201630
H          -0.39395220406958   -2.28656268754970   -0.33408426870594
H          -1.89146697255167    0.05859183038510   -1.40992270573339
O           1.16002358365910   -1.92586612081041   -0.44242676522296
H           1.67321957094989   -2.73536650465205   -0.45310844771891
O          -0.97913566462997    1.26770226179927   -1.90324728343324
H          -1.14633271522510    1.41027970068066   -2.83628426406532
O           1.79147152581281    1.96315955996785    0.73856547151303
H           2.17998717421287    2.83855155172907    0.72975754073952
O           1.48638351024422    0.56418831029856   -1.58152375597448
H           1.44545909723776   -0.36826336188434   -1.31466995208194
H          -0.01085827213643    0.99847351920543   -1.82311763054451
H           1.73488905368689    1.05718188788063   -0.77325833635338
O          -0.83992145407588    2.18555605154137    0.72873499135788
H          -1.13093719720949    1.29324677209707    0.98837866412671
H           0.80863140638436    2.09666058632800    0.81050819196688
H          -1.04218755133508    2.23263296611669   -0.21473515557367
N           1.27481796463000   -0.73138502595532    1.83803831090708
H           1.57783056167369   -1.11788585242750    2.72180143218864
H           1.28265667075221   -1.49776744939968    0.48683204455637
H           0.26940897019174   -0.57472402168486    1.87856132811248
H           1.71420963437855    0.17561698815569    1.71226953932702
