    26
        -50.44582187  Gyration_radius:  2.61099096502 Dipole_moment: 6.559
 S          -1.44799582468305    0.75454325125531    2.30603734435461
O          -1.43725385189785    1.07052913864257    0.89375844322697
O          -2.65118906124716    0.99660822056862    3.00522708864391
O          -0.99441096058039   -0.74150611806078    2.45786850885549
O          -0.28363665424551    1.48554578047133    2.99183833178127
H           0.55297907990054    1.25394929507554    2.48190017071320
H          -1.19093821542906   -1.23361663532417    1.64039676301681
O           1.81086900094040    0.80753962086261    1.66938986182799
H           2.47706833676191    0.51898823096512    2.29581865015852
O           1.31694079787238    0.31155787793332   -2.26022211479505
H           2.07835187138258    0.65296159597160   -2.73073943308100
O          -1.37452798469923   -1.39735152461816   -0.07823762322893
H          -1.57015564810618   -0.44665801087763   -0.03936076929089
O           1.33681350090527   -1.15567680760568    0.05903384259791
H           0.38906083928007   -1.39498005661690    0.09448436384784
H           1.45793748179756   -0.76283789206429   -0.82544385638539
H           1.62463027875375    0.01168712971169    1.07476806474733
O           0.60242540540845    2.17082244205282   -0.51195581528385
H           0.98643867580644    1.05773394111522   -1.69763197243093
H          -0.24219788169350    1.90073838498205   -0.11054952020534
H           1.25291552440681    2.07063320357411    0.19311742434183
N          -0.93291490497612   -1.61004832947036   -2.71026313918912
H          -0.16217771525024   -0.94776762620100   -2.75637719381274
H          -1.31921819837822   -1.61145916646096   -1.04839525807985
H          -1.67194570406042   -1.26912987742909   -3.31152062127202
H          -0.60786818796717   -2.49280603844843   -3.08294156105485
