    26
        -50.43832373  Gyration_radius:  2.67214819109 Dipole_moment: 8.972
 S          -0.35542032523072   -2.14493338685294   -1.92514938883469
O           0.85439592454856   -1.64874216391619   -2.52109093270889
O          -0.77568031213026   -3.46144463227188   -2.23200872267002
O          -0.21377359227591   -1.96557152961470   -0.37651643815322
O          -1.52397218449248   -1.16803476498117   -2.25311385364015
H          -1.20342335795185   -0.25129831530971   -2.08119756740637
H           0.74083314963781   -1.63021216723338   -0.23693321462972
O           2.15829119881351   -1.08530174575892   -0.25388875360168
H           2.21011732676460   -1.27109949551007   -1.20466516243012
O          -0.80995085739170    1.32790744959259   -1.75864118631470
H          -1.12644416090275    1.82931456263710   -2.51241637523910
O          -0.04676627284202    1.49800961227099    2.14433875294445
H           0.21899114486560    1.90349781533797    2.97046850931864
O           1.49907554144347    1.47857124410041   -0.16664744347596
H           2.05226898169503   -0.10171103429297   -0.18901192326829
H           0.83127143609416    1.46097861933712   -0.86749916357571
H           1.00874058610627    1.58350759152884    0.66614356782353
O          -2.05413241736406    2.13324233410706    0.43826704373875
H          -2.20264888658417    3.07167467785253    0.56691392447259
H          -1.36334146409484    1.58926478530353   -0.97991619189551
H          -1.40753743093587    1.85835141227127    1.11875610407494
N           0.31398330520039   -1.10551788696742    2.38313259839946
H           0.05042667076986    0.50325170438910    2.26712805716210
H          -0.29052202177927   -1.51665387049983    1.67812194169636
H           1.26571757873911   -1.27691156663617    2.07635856668127
H           0.16950042929856   -1.61013924887974    3.24906723152569
