    26
        -50.45723603  Gyration_radius:  2.49130699126 Dipole_moment: 8.466
 S          -1.06013516724683   -1.66014898681405   -1.35582697411740
O          -1.37577097867216   -1.23888174760819    0.04400866801002
O          -2.08809518930324   -2.44589921441748   -1.93742593508620
O          -0.64115526133699   -0.49226609086883   -2.12686218437797
O           0.22834481011255   -2.56914381095798   -1.18999963791412
H           0.98136967841904   -1.99541404944593   -0.95717706575867
H          -1.88157266294346    0.85634824657851   -1.60370254185486
O           2.31795609702111   -1.04743070784829   -0.31520096569366
H           3.15100227089597   -1.29982267526234   -0.71464065095161
O          -2.23190690879725    1.11879751384861   -0.73716039522876
H          -2.16571329763584    0.27662751977806   -0.24556713567972
O          -0.02271151629374    1.39772798738503    2.64867222477512
H          -0.91445106642674    1.46303872677455    2.99582062045999
O           1.36996361811155    1.03123676764439   -1.45066981266972
H           2.04257345961218   -0.17645604324776   -0.75315789351487
H           0.62851487147814    0.51570860095287   -1.85099874520623
H           0.94233644649156    1.64619436512737   -0.83135073342769
O          -0.26807829407970    2.51043930726699    0.23318875031934
H          -0.02869027884490    1.88664187007775    1.79477122675213
H          -0.42331402200963    3.43743965209070    0.04807404559514
H          -1.06342330456015    2.01241830090617   -0.13042958692861
N           0.52071086499397   -1.05374554745420    1.71324593808832
H           1.38647933596158   -1.07108773958760    1.15212405269792
H          -0.31639524060730   -1.18048834329128    1.00312355988740
H           0.51821934073576   -1.80461770002817    2.39432734728280
H           0.39394239495411   -0.11721619159082    2.17281384456701
