    26
        -50.43832371  Gyration_radius:  2.6722894502 Dipole_moment: 8.969
 S          -2.37296425431244   -1.25706720863304   -1.10609038117711
O          -1.62242291669452   -1.32051149985851   -2.32981268962602
O          -3.49924373226827   -2.10088090258064   -0.95346586513063
O          -1.36112467589260   -1.48103407353730    0.06721908904642
O          -2.82496297772366    0.21355338038671   -0.86036207573805
H          -2.04409335936433    0.79537471596623   -1.01616600383799
H          -0.47363553174858   -1.69896063532038   -0.38910211372463
O           0.74916573041215   -1.93869067366745   -1.25694233622163
H           0.18211830531955   -1.93357832423120   -2.04410131576083
O          -0.79060536873994    1.87089978492418   -1.17639270637379
H          -1.14287101794391    2.60024318206022   -1.68992078750335
O           1.88306104903203    0.86647594199167    1.59546919841431
H           2.71088815054241    0.91427202507453    2.07499786715779
O           1.68101626194756    0.53860745504501   -1.15806433670201
H           1.22184640408624   -1.06735044126669   -1.27421936910062
H           0.85132491581775    0.99313807328992   -1.36445673620023
H           1.84911083902525    0.70608672370441   -0.21534919372798
O          -0.03712600349573    2.73935636025563    1.21106889923018
H           0.61402606126589    2.05050745987801    1.45246539400886
H           0.42029480776945    3.57987238483882    1.27167471820951
H          -0.61157775935512    2.21425999013381   -0.26471193206348
N           0.90572359242407   -1.56156210912728    1.93518417490074
H           1.49891776552336   -0.04705386600440    1.77381517672217
H           1.29195957680883   -2.11862519069146    1.18028444507031
H           1.00839949663385   -2.08682335683552    2.79485098500849
H          -0.08722535907337   -1.47050917577883    1.74212792512168
