    26
        -50.45911231  Gyration_radius:  2.4360029357 Dipole_moment: 3.769
 S          -1.13706916463957    0.99905903536086    1.54558471538127
O          -0.19929458337919   -0.06729562486456    1.86385360820387
O          -0.51397471024133    2.05416751512433    0.76540866556397
O          -2.35882936639775    0.49128211638644    0.95730856178597
O          -1.55976520895740    1.66844878702858    2.91807421784199
H          -2.27561255849362    1.11040485420331    3.20298522656737
H          -1.96454309846041    0.63902857324801   -0.63670237716258
O           1.53470223544722   -1.88718513437539   -1.05070321826006
H           1.82418707687185   -2.72496956483287   -1.41210946723969
O          -1.68186744648505    0.73385297018578   -1.57303424512223
H          -1.90619596126997    1.63559239105354   -1.81126610257647
O           1.77341923837671    1.78273272678896   -0.23088912088052
H           0.87681101548588    2.00967306114339    0.21725898883538
O           0.91781709931583    0.49230546443435   -2.19682041547393
H          -0.05379887004475    0.53584773656931   -2.04525809123608
H           1.48159359955618    1.33296866082760   -1.14423064694386
H           1.19146491513015   -0.41132740666250   -1.94426509228436
O           2.29621504612195   -0.30457255095871    1.04742729562609
H           2.19840166482413   -0.98043739709603    0.34963942151356
H           2.14150756353284    0.97157988472980    0.33619910224485
H           1.43382505188902   -0.29379987259970    1.51958789668928
N          -0.90729243281253   -2.00238954530016   -0.11690193967502
H           0.59378513449169   -2.01781105837132   -0.70255264259487
H          -0.80160482928952   -1.36735996583142    0.67503414459481
H          -1.55129394454035   -1.55527023783821   -0.75908136710490
H          -1.35258746601367   -2.84452543835381    0.22545287171011
