    26
        -50.43832380  Gyration_radius:  2.67220814011 Dipole_moment: 8.970
 S           1.88434164604664    2.20472645680539   -0.14887328648040
O           0.71926542975606    3.03329523794666   -0.29400518212005
O           3.10281116368501    2.80634062335516    0.24777914795217
O           1.50543581528486    1.04425291518183    0.83106486344838
O           2.12937957191815    1.43106130872457   -1.47883164722965
H           1.26456993149271    1.05639653039839   -1.76931698156802
H           0.56294716769281    1.26986324080920    1.15376212176532
O          -1.17744556987238   -2.28197659071578    0.49988676668559
H          -1.72680693922191   -2.94248709982516    0.92351747372002
O          -0.11121939358932    0.31285391685921   -2.32368238678253
H          -0.13749727809087    0.49266571214634   -3.26535011347654
O          -0.84530483986467    1.75062016482141    1.45651719708886
H          -0.66497877916414    2.56575726748055    0.96234600077418
O           0.04977929241253   -2.30067610644256   -1.91606722076348
H          -0.48104774790208   -2.88522619348462   -2.45998378533882
H           0.04520678270593   -0.65917389622492   -2.21544335753401
H          -0.31143110825310   -2.36086636484359   -1.00905971167722
O          -2.07601825576984    0.21843548172465   -0.31917984337495
H          -1.50078010849340    0.41298324119823   -1.07334333900570
H          -1.86667920459688   -0.69260443514349   -0.05241454534633
H          -1.42921258571097    1.21300647424731    0.86242168443835
N           0.26820584068066   -1.12437225668479    2.38029216653179
H          -0.28979743990074   -0.34422548684207    2.71089551876536
H          -0.59819058378005   -1.88349795183701    1.22074883091197
H           1.05852471517543   -0.71993263780561    1.88702232664218
H           0.62594250735439   -1.61721956184601    3.18929730197011
