    26
        -50.45091464  Gyration_radius:  2.53876122994 Dipole_moment: 7.513
 S           1.12715048190948   -1.23008922043714    1.81681681965369
O           1.66258349530423   -0.39019387473607    0.73608365604650
O           0.14363997107212   -0.56658452264554    2.62060416777724
O           0.69415692368165   -2.51320460782051    1.27362193070236
O           2.36548971192522   -1.54466271050760    2.75758589933387
H           2.95707405351301   -2.03138627393425    2.19186667784820
H          -0.68099876901495   -2.19737323656165    0.58490971636282
O          -1.45226676514261   -1.94823044673136    0.00256182925642
H          -2.11383133270793   -2.62937148890444    0.13330342767472
O          -0.10383996627244    1.77460605321644    1.38128554406418
H          -0.00469857384103    1.01548640945968    1.98647906538763
O          -1.12209922337696    1.42797513558995   -2.21886982348258
H          -1.78979071393226    1.53326911729523   -2.89643646409397
O          -2.17112194144314    0.81160911508153    0.04427918725145
H          -1.51453738669061    1.25647337989890    0.63775073868274
H          -1.61535668989034    1.25977195464445   -1.35324562127976
H          -2.04730660352945   -0.13709725395670    0.19129676980441
O           1.27078031300267    2.34368162907969   -1.10310375297835
H           0.41178671818104    2.28176595593343   -1.54355089920054
H           1.30702614831927    3.21268305267872   -0.70043266967180
H           0.63528948201490    1.69874581007848    0.76012720960954
N           0.41126336872232   -0.68881043912692   -1.48924293073300
H           0.98910890305007   -0.47118707267341   -0.59630129216559
H          -0.00822752278895    0.18452921719805   -1.87401701297250
H           1.00504491073378   -1.14347301881897   -2.17386432085972
H          -0.35631898280154   -1.30893265329203   -1.16950785201296
