    26
        -50.45911189  Gyration_radius:  2.4360810826 Dipole_moment: 3.764
 S          -2.04365959806101   -0.58506790800762    0.40371228071061
O          -1.59998997519756    0.79122992504415    0.56624545202256
O          -1.73771324900369   -1.10046345247878   -0.91955476795093
O          -1.57693805508750   -1.43749251148328    1.47715634434232
O          -3.62454991536039   -0.57744577732562    0.51039741294812
H          -3.76325985157287   -0.64391623528153    1.44921356543189
H          -0.19765615934104   -2.00751633378761    0.77702364368609
O           0.62049948113939   -2.31164836637452    0.32556916129843
H           0.35071477929704   -3.07056407644274   -0.19544569997035
O          -0.25034476886046    0.14983446769951   -2.50784043267254
H          -0.93943677826915   -0.37759009219240   -1.95701237480629
O           2.12845994009481    1.57980470834081    0.04161565363527
H           2.89536223233483    2.06146110734858    0.35178124626364
O           1.84525926261031   -0.68499796964841   -1.42417362566358
H           0.67597357667035   -0.24614484132921   -2.18146674643245
H           2.11752676123546    0.11437951607263   -0.93225066044401
H           1.47897709532318   -1.30652190593967   -0.75459033601710
O          -0.23905918479012    2.25447006963779   -1.15321242880736
H          -0.26941164116855    1.11513788275264   -2.08038728460393
H          -0.83849042440055    1.87929332642758   -0.47006167362224
H           0.65345898364840    2.21819361914402   -0.75915825684253
N           0.84525315202860    0.39873990214241    1.99300171799346
H           1.68446978288341    1.16644917378246    0.85126700921090
H           1.03976907277234   -0.59586043427067    1.98987534323304
H           0.85145307135805    0.70821307851122    2.95675820780680
H          -0.10666758026814    0.50802312765055    1.64153727925114
