    26
        -50.45124318  Gyration_radius:  2.84960050543 Dipole_moment: 7.281
 S          -0.35330596124759   -3.05782514409115   -0.01351418320327
O           0.22261974785129   -2.44003768954025    1.17608227898425
O          -0.81171523518852   -4.40074158170146    0.13942275086301
O          -1.73760713506444   -2.19805338566313   -0.26504911448590
O           0.44233205452368   -2.77855342112463   -1.19847847160538
H           0.83574481323134   -1.39672994084486   -1.76149789869797
H          -2.35030860540997   -2.91881026127485   -0.16448600434602
O           1.07487476058381   -0.46100515106247   -2.03861620526773
H           1.74883144571866   -0.55346629600698   -2.71265848942268
O           2.27964362000870    1.89802826851853    1.91938935309809
H           3.13842314834557    2.24809184325031    1.68037085502139
O          -1.56973197330851    1.44902580290011    0.40004639616230
H          -2.35436823923016    1.17926063931955    0.87928533413857
O          -1.61267940671957    0.09479976016549   -1.82255661281764
H          -1.65663324471611    1.05615891052858   -0.51518775009559
H          -0.69310625054546    0.05047756564702   -2.13381581176727
H          -1.77866271845892   -0.77222105205153   -1.41913808547837
O           0.27169019654465    3.45675488142011    0.94955112461866
H           1.61680065515915    2.55522814201981    1.62567337987128
H          -0.42092859740062    2.83322912967787    0.67281090454083
H          -0.16295375615706    4.13476883936170    1.46881016550867
N           0.78727652517429    0.00920539021927    0.63549390662016
H          -0.10708429763003    0.52783939700755    0.69169412180472
H           1.08996622016038   -0.00591643450377   -0.35346634279327
H           1.48536875288017    0.49798071006734    1.22317822631000
H           0.61551347086400   -1.00748891222207    0.93665618238590
