    26
        -50.44282358  Gyration_radius:  2.59540559782 Dipole_moment: 6.745
 S           0.41098939514583   -0.42707245854641   -2.14708436064310
O           0.11317374062753    0.94799532241058   -1.80842003189446
O           0.93280775865739   -0.68756873018482   -3.43359632586755
O           1.34883647970828   -0.98739448180000   -1.04165079007590
O          -0.87908346072424   -1.26616295111388   -1.95350018035941
H          -1.38597610446058   -0.94739330982666   -1.15672694886907
H           1.51808458800152   -0.22550536387256   -0.39174788810059
O          -2.32460822588009   -0.35729129630821    0.01436454395045
H          -3.17588024479580   -0.79888782932830    0.00684978507346
O           1.47311591167708    1.04099241931567    0.48814771943935
H           1.02060000920108    1.50951694446557   -0.22812274894056
O           1.16102447535005   -2.23924435796473    1.54621091852582
H           1.21921352945925   -2.28990879679393    0.58640120766142
O          -0.35367964130620   -0.06578653295631    1.96425287766826
H           0.09316619717165   -0.94307868081122    1.96740695830793
H           0.75773257142832    0.75284627425314    1.13107420802097
H          -1.13895002249121   -0.17702989031541    1.40989275237536
O           3.18788890189746   -0.48508843888574    2.14468687867869
H           2.87146164908638    0.18536074616103    1.52465946905361
H           3.06065639410430   -0.12403958239487    3.02412074052929
H           1.99753668923795   -1.82521175288021    1.83068266104452
N          -2.44089174297948    1.99659597026350   -1.12875971364221
H          -3.08396596093402    2.15406047839063   -1.89415721831713
H          -2.46152172144883    0.57241564240583   -0.35874692239413
H          -1.51282878583844    1.84777297541872   -1.52736880518591
H          -2.40890238995216    2.83910769101289   -0.56886876618527
