    26
        -50.44282344  Gyration_radius:  2.59550845894 Dipole_moment: 6.744
 S           1.84338591501598   -1.12443428466296   -0.54568632239731
O           0.59117603797360   -1.66305404634010   -1.03143408929590
O           3.03750080875936   -1.64828724191963   -1.08871411448112
O           1.78443845196791    0.41941111839127   -0.71573408076418
O           1.88058259434545   -1.29351824794581    0.99570456011797
H           0.97642729185935   -1.13685834732628    1.38465007899540
H           0.89011147984647    0.62936517390397   -1.14873088673180
O          -0.49626481089645   -1.06369698256118    2.03805415453382
H          -0.45937187111095   -1.32066621400502    2.96128940729576
O          -0.56723634617130    0.66136444231216   -1.65487434754529
H          -0.55247801286872   -0.30398737048157   -1.72670447928472
O           0.85793548443724    2.73922627333632    0.71858326701180
H           1.54777948504562    2.10629886036820    0.49330004498330
O          -0.09207336139740    3.44987667852050   -1.75857153980485
H           0.65160555039492    3.19951117195526   -0.11664907423809
H          -0.23467259618011    2.53429757864657   -2.03327786871010
H          -0.96108130193375    3.84691016657546   -1.67418623995792
O          -1.36972710453616    1.24613265970291    0.74413681907749
H          -0.63640127087267    1.88418902265276    0.90046159940895
H          -1.02332918324740    0.87112111790047   -0.78532307780133
H          -1.17248537348980    0.48250020937171    1.30472444047543
N          -1.37357141846839   -3.01041567910414    0.52102026887300
H          -2.30734391823494   -2.97448895840221    0.13239409577407
H          -0.92334014010217   -1.82489014829002    1.52776124884689
H          -1.17455480978647   -3.97130713778392    0.76831107274670
H          -0.71701159034777   -2.73459981478646   -0.21050495705433
