    26
        -50.46596113  Gyration_radius:  2.46779557353 Dipole_moment: 2.853
 S          -1.74660009069421   -1.30248460032923   -0.20697352413340
O          -0.67784284283692   -1.68647365922164   -1.11098428828757
O          -1.37978406547937   -1.38553991320871    1.19268169475403
O          -2.29819862387985   -0.00114193763790   -0.56180299893353
O          -2.90444579295385   -2.36267607561249   -0.41662403640324
H          -2.95090513417523   -2.41579371857957   -1.36508546696275
H          -1.16922646717027    0.59794297121027   -1.66112225478974
O           1.94819799156811   -1.53226783154207   -0.60289234087132
H           1.04378453405355   -1.72635983374242   -0.92363503578237
O          -0.46035026894287    0.93670821012004   -2.24540103547596
H          -0.24405293584697    0.19783900672173   -2.81816937131752
O           1.07485773457919    1.76885973681001    1.61890696038719
H           1.20792120336740    2.46299263166567    2.26543979610092
O           1.96284146116855    1.09398835320414   -1.01094851471954
H           1.11309224646200    1.16507039717968   -1.49020850872601
H           1.80918044293720    1.46588379483144   -0.13318405996350
H           2.12858366595091   -0.60685420927639   -0.89615926365744
O          -1.25595907928568    2.18445491811652    0.50852833545424
H          -1.74090053966812    1.36166959301981    0.28454491987594
H           0.16448971075694    1.91500559522072    1.24013280510337
H          -1.11826118165420    2.62006746578428   -0.33764061064860
N           1.11675023232792   -0.95323385107907    1.76737225941851
H           1.48483956122475   -1.43578827301783    2.57868580192251
H           1.20496855067452    0.07652937133472    1.85976314719258
H           1.59918166686862   -1.26449541100908    0.84181973644738
H           0.08783802065284   -1.17390271096198    1.62295585402404
