    26
        -50.46596129  Gyration_radius:  2.46782291337 Dipole_moment: 2.851
 S          -0.40618025958156   -0.61442919366121   -2.06089916961610
O          -0.16382582345095   -1.75492413711702   -1.19631607074501
O          -1.55772976552837    0.17433128061203   -1.67073701127122
O           0.79555609201255    0.19459254130576   -2.21895919205038
O          -0.74921757620373   -1.20760038569313   -3.48887889374776
H          -0.07237838605783   -1.86744122564395   -3.59402707136290
H           1.81267113757501   -0.40516453781594   -1.01586856198831
O           2.34913628076343   -0.73627599584620   -0.26670794333748
H           2.25702833117196   -1.69068769968660   -0.30507063436176
O          -0.87451188135436   -1.96000420132242    1.37839028660229
H          -0.61366064796153   -2.08550994614772    0.44309677522595
O          -0.22486417315141    2.05437936702548    1.62301814006681
H          -0.27482400358651    2.94022430826656    1.98399903943625
O           1.25521732742770    2.18011578877539   -0.52917398994279
H           2.14252534172223    1.88247888981052   -0.30818957126874
H           0.96529898233614    1.57568344844203   -1.24536042649154
H           0.30212387927360    2.12892229429009    0.78020707861805
O           1.13597923098981   -0.40197283183627    2.14927804472240
H           1.67782533796479   -0.46211952433732    1.33712624208115
H           0.75387748278163    0.48477687667131    2.15339216555643
H          -0.08446158262910   -1.55487318556371    1.81041487854021
N          -2.11471660118670    0.24077694757370    0.86611561957546
H          -1.98146207034182    0.24573090401221   -0.18761507489573
H          -1.71190755181155   -0.71749970987993    1.19155868290694
H          -1.52682074530409    1.00049023974223    1.25851475088283
H          -3.09067833583713    0.35599970805481    1.11269189687317
