    26
        -50.43832372  Gyration_radius:  2.67226676103 Dipole_moment: 8.969
 S          -0.81521492969568    2.15025799660662   -1.77354771328422
O          -1.78827350010806    2.45481428693909   -0.76099296875654
O          -0.48987690912602    3.14519071345153   -2.72655608098237
O           0.47574717904370    1.65668356656272   -1.03839795623196
O          -1.25768194597924    0.86605048234349   -2.53667165946966
H          -1.52694430714070    0.19738556585989   -1.86365294500852
H           0.27722732687177    1.78431802793956   -0.04455879163047
O          -1.93602989830925   -1.03495458323285   -0.83045305533291
H          -2.74658351234096   -1.40677609383456   -1.18328576351206
O           1.34773260218537   -1.85060853086774    1.26527758746336
H           1.87602724216736   -2.28544651575986    1.93561485410161
O          -0.23659692814347    1.99290904309955    1.36896677262790
H          -1.02787896636803    2.42413347717684    1.00969050055282
O          -1.02971214949657   -0.50160481770356    1.77313321037574
H          -1.51751529940860   -0.61411004932369    0.94429898015110
H          -0.22446207541774   -1.03875232971916    1.68329021297345
H          -0.54223836815633    1.09630584854555    1.66162266246298
O          -0.03291694414148   -2.87892962047353   -0.82730976263273
H          -1.22925622655119   -1.72093332261515   -0.93527133057901
H           0.55742482418314   -2.52267901589716   -0.13350400041676
H          -0.25826533746020   -3.77206408518894   -0.56105869540851
N           2.51037169429229    0.45175860924108    0.70553209482021
H           3.51478073029907    0.58053037127030    0.70083567660159
H           1.82845518360552   -0.99847567147298    1.02723940544709
H           2.11208028536333    1.12284400152908    1.35387128450183
H           2.15960021983624    0.70215264552380   -0.21411248882673
