    26
        -50.46596109  Gyration_radius:  2.46789777667 Dipole_moment: 2.849
 S          -1.41275675330477   -1.14312239050788   -1.22004132680762
O          -0.04332097426162   -1.33098492711193   -1.66322965565609
O          -1.64804640942618   -1.58671510619222    0.13947461723118
O          -1.85808099712642    0.22618677482666   -1.44428179107627
O          -2.30617818132071   -2.07153984572456   -2.14115650305880
H          -1.95435708011302   -1.88585560710829   -3.00503740981811
H          -0.42236766446794    1.03554049114242   -1.79680831850513
O           2.12434924312204   -1.40802120068899   -0.09145959170616
H           1.44702471981366   -1.48160431526641   -0.79464752326662
O           0.43796582786946    1.48234790411792   -1.93423067768580
H           0.92088456011564    0.90249906888778   -2.52705081232480
O           0.18981796575326    1.26866000392082    2.29313737835058
H          -0.00307386966774    1.77413947040376    3.08358494054388
O           2.12388405012564    1.23461317205553    0.19091709343788
H           1.59806780406673    1.38233739208246    0.98719591298170
H           2.34479698713227   -0.44640805290083   -0.05057488669633
H           1.54302649608256    1.45501747459039   -0.56459314647405
O          -1.50146140807610    2.03793049971966    0.45304592828563
H          -1.05836562450099    2.66349724897776   -0.12755735173733
H          -1.79349305504354    1.31542222189644   -0.14275249215060
H          -0.49214530866323    1.53993656296312    1.61863937136976
N           0.35567442318393   -1.40460594958807    1.78345277781813
H           0.39140186228887   -2.08718184511666    2.53137487612590
H           1.19581153115312   -1.49419210706437    1.09586230938467
H          -0.50516848928682   -1.54375056392672    1.17713895911900
H           0.32611036456009   -0.43414637438135    2.14959732231445
