    26
        -50.46741720  Gyration_radius:  2.48082991109 Dipole_moment: 4.008
 S          -2.26615856847657    0.61153632281819   -0.49169252489424
O          -1.73713796935104    0.80675586827830    0.85437892936477
O          -3.66843025440992    0.37936172130139   -0.59333472092416
O          -1.97205663531699    2.01724892028124   -1.21521625943490
O          -1.44238550725622   -0.35710710195953   -1.22335878690112
H          -0.81004508526177   -1.61718495581173   -0.47785670971198
H          -2.71674064926623    2.07892643153305   -1.80272093938975
O           0.90105101347977    0.62730581333940   -1.96496075895946
H          -0.00239039763903    0.25519279259493   -1.88048694369397
O           2.06648755614795    0.26029478845932    1.69901263957926
H           2.32765874276866   -0.33234506467374    0.97595247967948
O          -0.34518029432163   -2.38249622634731   -0.04658659876167
H          -0.79379862420617   -3.17021671678641   -0.35738499829218
O           2.13886474755017   -1.43683012152332   -0.52197638427344
H           1.49395975391655   -0.07266677739154   -1.64763336158657
H           2.74341010501166   -2.14865501789655   -0.73447029819286
H           1.26871350317659   -1.84844364365535   -0.33086989364039
O          -0.22460198126921   -0.92868067410736    2.34102322871397
H          -0.87440696768509   -0.28233666835956    2.01830050510118
H          -0.25929412657019   -1.65054278540981    1.69734466057046
H           1.30458371237087   -0.19401252432889    2.13412510906668
N           0.57888261762996    1.91097895692288    0.31729921101133
H          -0.39186868744806    1.58455545088023    0.57124169480670
H           0.65709173593286    2.91700927254817    0.40886505791139
H           1.26594905544791    1.38257512175137    0.94842951377917
H           0.75784321504631    1.58977680760668   -0.67742382090994
