    26
        -50.46596113  Gyration_radius:  2.46787512847 Dipole_moment: 2.850
 S          -1.21891621571188   -0.81047050738707   -1.62732092726257
O           0.14958151355314   -0.56992819748135   -2.04742181693632
O          -1.33433939881763   -1.77879196742271   -0.55518488470312
O          -1.90724594069642    0.43834397685782   -1.32673586068073
O          -1.95713201354079   -1.45143063873427   -2.87344496940258
H          -1.66836348304283   -0.88741376279077   -3.58269296585631
H          -0.64859720974587    1.55840069594562   -1.27654537020751
O           2.33801450362216   -0.86865826452300   -0.53213472387310
H           1.66570970545861   -0.78179261564596   -1.23861943294763
O           0.11438041845548    2.16634097482728   -1.19325071297376
H           0.67685528004036    1.95416245377841   -1.94121647871575
O           0.02258066022031    0.29588890425861    2.61047074238866
H          -0.23627357115853    0.41381775551758    3.52512504908095
O           1.87444153341448    1.41522524072740    0.74543428921663
H           1.35244557910262    1.14948104657742    1.51307849752718
H           2.38474390993101    0.02484647852752   -0.11443344674762
H           1.24339849915944    1.80538549045865    0.10798069177527
O          -1.82787367391761    1.40840601456016    1.13540661429581
H          -0.71477822650333    0.68327123338348    2.06279053721765
H          -1.51928514112367    2.27668939571219    0.86051618666921
H          -2.00252330548640    0.93328477513004    0.29513794653720
N           0.64861175537025   -1.89915088767328    1.11934140728561
H           0.45639224131167   -1.16679220379504    1.82889051204344
H           0.82558458923285   -2.79996675029327    1.54801533227607
H          -0.18973417296939   -1.94133072269526    0.46860708307910
H           1.47232213380516   -1.56781789781056    0.48820670090455
