    26
        -50.43832373  Gyration_radius:  2.67219581609 Dipole_moment: 8.971
 S          -1.10653780045229   -1.67241181492541   -2.10040889119315
O          -0.05390715606166   -1.13486889988816   -2.91772151876957
O          -1.74276394462783   -2.86908606308782   -2.50927601703417
O          -0.53223008322098   -1.82821766777911   -0.65253931054392
O          -2.19964953044005   -0.58170076447801   -1.89340309145700
H          -1.74100828721137    0.25857176459715   -1.65619890896208
H           0.45679537942051   -1.58638856625133   -0.73452197838432
O           1.86984321384832   -1.13450153956530   -1.05830135637614
H           1.64130215951801   -1.12058210641084   -2.00103052855438
O          -1.09497084352557    1.70993979004698   -1.17762317791762
H          -1.54261954510856    2.37496953105925   -1.70402908661086
O           0.70630006736505    1.01881596665600    2.30380087722435
H           1.23001538837974    1.22681817017475    3.07839588969473
O           1.55912534686795    1.38910872426787   -0.31654885609622
H           1.32699230989051    1.34709673434175    0.62649088488799
H           1.89952439669137   -0.18158875482259   -0.78627238201894
H           0.72967503519955    1.55726240328287   -0.78687921405485
O          -1.59848529599942    2.11470504988326    1.39247589184189
H          -1.38374535917511    1.83655722870198   -0.23870808731205
H          -0.82897767101162    1.66582205247877    1.79633762741964
H          -1.59611445446626    3.01325676270138    1.72698221569578
N           0.81395614511944   -1.59418261734431    1.94841587015075
H           1.62205789368853   -1.75491032116321    1.35646977748783
H           0.71697135358145    0.01633295432040    2.20930985531634
H          -0.00086274363118   -1.81250068083333    1.38280905724014
H           0.84931401535450   -2.25831735595585    2.71197446832162
