    26
        -50.46846756  Gyration_radius:  2.39926975291 Dipole_moment: 5.645
 S          -1.46542388101137   -0.79594263421776    0.72982841827268
O          -0.72318202567670    0.14468586652099    1.60408565441497
O          -1.83421695690739   -1.99796018718234    1.42732568562209
O          -2.75563644234802   -0.04828041293654    0.27673341407401
O          -0.67041838272274   -1.06667321295116   -0.46261031396002
H           0.27604110105156   -3.26091673058233   -0.15962801482379
H          -2.45247739676375    0.67968974937242   -0.31754844661986
O           0.42774795640497   -3.21968715685960    0.78945360447354
H          -0.44153023854034   -2.92592597239664    1.14929042960891
O          -1.84071821797062    1.99928052573347   -1.15891835916185
H          -2.48936831885792    2.70249253405004   -1.09551632674515
O           2.21608953683229    0.84409217237334   -0.77453019617606
H           3.01627156562843    0.95722036607958   -1.28877699118904
O           0.21349180701008    0.45150402246146   -2.38399179938634
H          -0.16139535032162   -0.23021973048221   -1.78099421725390
H          -0.44798869799578    1.15316533389893   -2.37419739887560
H           1.47849392041248    0.70206282854661   -1.44083832053137
O           0.14624423676874    2.37641343889081    0.49197866154488
H          -0.18966812127745    1.63631875179103    1.04359022441332
H           0.97178255684059    2.05458830423837    0.10437567598820
H          -1.08393351197469    2.25785997984238   -0.56108816991714
N           1.60249390335606   -0.88721940438401    1.24294850838188
H           2.27457662287073   -0.88240808602586    2.00314008746006
H           1.29256574312649   -1.87414499365265    0.99813722955364
H           0.68254046609325   -0.40647630707774    1.52292348757763
H           1.95761813597377   -0.36351900505124    0.41482748325447
