    26
        -50.45446024  Gyration_radius:  2.74426227359 Dipole_moment: 5.610
 S          -1.37723251589804    2.33239673769474    0.92240421180300
O          -0.37626137337945    1.98711299062297    1.94031239020598
O          -0.82514860938466    2.36144949160854   -0.40796955566736
O          -2.55508666500508    1.48519419268192    1.05098215958797
O          -1.85021841793694    3.80759653645868    1.26592296046524
H          -2.24656329586355    3.70098985644940    2.12553530238471
H          -2.32634472149889   -0.03157097805060    0.68114290195138
O          -2.09156551583016   -0.99440102130075    0.55434075658113
H          -2.78069069243976   -1.48899565240420    1.00000158657138
O           0.81017385937330    0.63308654728840   -1.51771737624342
H           0.23984895875384    1.39779205217150   -1.28515915515244
O           1.48377003494670   -2.60667583399450   -0.23510828773804
H           1.74678763594094   -3.48026240241219   -0.52712245303558
O           3.16245175724010   -0.67965846455563   -1.19671680670417
H           2.16101680944819   -1.99415223913408   -0.57776224623886
H           2.43894140039239   -0.10605084302789   -1.50697794781317
H           3.90271054451003   -0.10419019838179   -1.00184649819486
O          -0.65195606702244   -1.58224043760091   -1.77285442885829
H          -1.36555721548011   -1.40850185955872   -1.14241846883931
H           0.21221808958796   -0.05392625817685   -1.89004167090489
H           0.01364703104750   -2.09087087229876   -1.28016037815795
N           0.47876318791643   -0.23544164080310    0.98015427347477
H          -0.40665904054656   -0.77169285491055    0.90221969622907
H           0.76363219703589    0.05046825582584   -0.00054175180263
H           0.23997830095948    0.67216416993985    1.49991335145425
H           1.19934432312716   -0.79961925415019    1.41946742461922
