    26
        -50.45446038  Gyration_radius:  2.7440541244 Dipole_moment: 5.606
 S           1.43459423066691    1.97229774815934   -1.49580922709347
O           2.17313586342248    1.75185725625925   -0.24550279685658
O           1.09310189270142    0.74049495365964   -2.16033748444329
O           0.29689759134433    2.85398861702480   -1.27276696853003
O           2.42820003639339    2.75988250824500   -2.45001024479645
H           2.56753351996611    3.57348150187707   -1.97470291445863
H          -0.86162763387614    2.23142347066338   -0.40088784861829
O           0.13616163764219   -1.46233619154907   -1.09940995093700
H           0.51314697966323   -0.76435422145705   -1.67800883265431
O          -1.50054815487926    1.83142222426097    0.25487004611406
H          -1.99073249259719    2.56915815518046    0.62042039661275
O          -1.25134445698557   -1.67930895162479    2.16062289695432
H          -1.88923677217282   -2.18813739379211    2.66241176444036
O           0.52484718146036   -3.29626284486958    0.86145804381488
H          -0.63266165782747   -2.32837501217182    1.77703606187903
H           0.42684551031018   -2.83596294787140    0.00865258302826
H           1.40414668595097   -3.67562072374306    0.86756982661212
O          -2.31659685984063   -0.78824062963955   -0.29877541277155
H          -2.11498295687653   -1.08460326342733    0.60452613895164
H          -2.24673467554374    0.17692110846414   -0.27767390370563
H          -0.83703909380987   -1.31772803874842   -1.09106260920981
N           0.53656155572239    0.18274824464520    0.95949207049172
H           1.32120689577746    0.81390228613900    0.58951393301929
H           0.69861775170248   -0.19764710181412    1.88664541542412
H          -0.33072144360711    0.75305384951930    0.94634844396243
H           0.41722886529093   -0.59205460339343    0.24538057277435
