    26
        -50.45446027  Gyration_radius:  2.74410543375 Dipole_moment: 5.605
 S          -0.91103840865715    1.15499620481107   -2.45422732047282
O          -0.85353828661991   -0.29914499813170   -2.65276155625340
O          -1.59751707971435    1.52020330189314   -1.24132608020834
O           0.41523282585598    1.74428286962405   -2.57835794713424
O          -1.76536140037302    1.72203512868838   -3.66532040549900
H          -1.23022674785326    1.49263749216831   -4.41915822425069
H           1.41464876545616    1.36967351769423   -1.41619806926077
O           1.28043845499645   -1.71413169624475    2.11581883426846
H           1.76729884897688   -1.98576250511591    2.89478470607899
O          -1.36640898572022    0.44425211247468    1.14274203330420
H          -1.62340088729476    0.95479781563769    0.34445051022769
O           2.03457059817588    0.99993664596881   -0.72535827325544
H           2.91717925231715    1.12744248639478   -1.07591795647271
O           1.10202897793148    1.09703200569667    1.91226968997203
H          -0.61111945984148    0.92772660665306    1.54764154862607
H           1.31481414689851    0.16090638128947    2.06353662351822
H           1.50828174778622    1.32221844118280    1.06306783844453
O          -1.41669864796143   -1.90493968452848    2.49890643328882
H           0.33902973277391   -1.86314426851950    2.32241587025166
H          -1.59960363159355   -1.01255004453216    2.15405688414273
H          -2.20718575302803   -2.42377411470141    2.34713017948444
N           0.22625350594388   -1.00184766920950   -0.43170422130866
H          -0.43415738648771   -0.56762220864288    0.27520359059799
H           1.09095369582640   -0.42747004139717   -0.44209394945499
H           0.44048013383874   -1.96371324482861   -0.18780462574940
H          -0.23495402158634   -0.87404053434285   -1.39179610291011
