    26
        -50.45730948  Gyration_radius:  2.44912133067 Dipole_moment: 7.985
 S          -1.98310902472651   -0.82297395708632    1.11721495272887
O          -0.97691160388878    0.13184041667521    1.67682348401689
O          -3.19779672301348   -0.83207271513450    1.85190123422893
O          -2.09740030861013   -0.61603134778205   -0.32004946984496
O          -1.26782677481720   -2.23382419496358    1.26601031956742
H          -0.73215306490554   -2.27891446985413    0.45576795306537
H          -1.72859071692812    0.62572400307185   -1.18335462116808
O           0.55693260045282   -2.21937501534953   -0.74148724131376
H           0.41552289271537   -2.93742713807817   -1.35927891832843
O          -1.41639485550413    1.38659712968991   -1.75184756857253
H          -2.13201719107896    1.56614555670237   -2.36245530785700
O           2.14969597501494    1.49189132790908    0.01359121057951
H           2.79896473991452    2.18696658861103    0.12217332560032
O           0.91565906488175    0.01432491774228   -2.04325854514656
H           0.62138233169116   -1.38719198657343   -1.29524525710520
H           0.07297698699104    0.50581746392844   -2.08722693619438
H           1.49563956704565    0.55194201153706   -1.48425328437677
O          -0.21610437181545    2.39368493553858    0.47381340985002
H          -0.58990396112919    1.68605580649532    1.03898561511563
H           1.24718149649877    1.91773826480205    0.18957551261875
H          -0.68452922875928    2.29499434938055   -0.37315339650296
N           1.38512761913080   -0.70122446139968    1.37112264051407
H           1.83161593703851   -0.99135422980054    2.23332865553814
H           1.31438490954746   -1.48029602005341    0.70340149421505
H           0.33925331227231   -0.35418141611187    1.56553473232846
H           1.87840037198077    0.10114418010237    0.92236599644209
