    26
        -50.45412828  Gyration_radius:  2.5809355931 Dipole_moment: 7.836
 S          -0.46483757987907   -2.60294955278820    0.38290738911323
O           0.71518374709949   -2.43719458295338   -0.48766661604849
O          -0.34199707765919   -3.64572736943784    1.34005458070638
O          -0.78042796059437   -1.28526740807854    0.97742552490630
O          -1.66105790651317   -2.93213605428070   -0.58742169986535
H          -1.71818747531804   -2.16591173302033   -1.16849345010739
H           0.11483716912293   -0.28310126548120    1.79683435966827
O           1.04006140446115    1.37569340884514   -1.59335927596331
H           1.31139283336320    2.03568885140612   -2.23147742312219
O          -2.46423638505242    2.00786770646652   -0.25308302253078
H          -3.07868480147737    2.43932274827065   -0.84709267455880
O           0.79042470680665    0.33697854348993    2.19063171267677
H           0.77494998908649    0.17304662405726    3.13432244575852
O           0.07779867822519    2.49759108104454    0.52950794810496
H          -0.88631714008630    2.45322125369933    0.37204613506724
H           0.25921657813673    1.86686954026966    1.24358581398152
H           0.66507741744175    1.87740854827865   -0.80419683908754
O          -1.32340303226425   -0.21635087114859   -1.31001228137366
H          -0.50006617942602    0.17621487857831   -1.63392184442844
H          -1.12598512402370   -0.53712508017418   -0.39859965902110
H          -2.21105393945921    1.15896416741671   -0.67388677431047
N           2.19730249151423   -0.44596195581905    0.00978961848563
H           1.89720870713875   -0.09835482422958    0.94070396602845
H           1.93477787171615    0.26178057352183   -0.70865321761771
H           3.18666156217065   -0.66315511396754   -0.01535976069765
H           1.59136144546962   -1.34741209396704   -0.20458498576352
