    26
        -50.45412835  Gyration_radius:  2.58065357108 Dipole_moment: 7.842
 S           0.08882024462442    0.93618287234648    2.49967703254666
O           0.84583339800192   -0.32804500969324    2.42105865053577
O           0.69564307847401    1.92994394148859    3.31380299681049
O          -0.18750995581667    1.38791607515318    1.11812281426686
O          -1.31051900460526    0.55163986666186    3.11206959781343
H          -1.68210368027251   -0.07973797097604    2.48660635275999
H           0.78292634829789    1.64362500708731   -0.09390054513189
O           0.19600165983166   -2.06188951536041   -1.10590425430766
H           0.12640259723869   -2.84987116991788   -1.64504944974570
O          -2.66306654619966    0.37238227616299   -1.71497625918499
H          -3.49895677595084   -0.01678719005232   -1.97252353205430
O           1.45582926816508    1.65273241776810   -0.83092260131420
H           1.80078919084355    2.54607089264364   -0.85686423952760
O          -0.10964975197597    0.06206795275479   -2.55007032625052
H           0.40349660295632    0.74605840077483   -2.09240744242165
H           0.05377891296871   -1.27881036255702   -1.72371248039270
H          -1.04945248467773    0.28611013493441   -2.39815618744352
O          -1.65445301322416   -0.66835391103571    0.57953628639687
H          -1.06594239834960   -1.33458051792590    0.19658271857263
H          -1.10308504411544    0.14135900880657    0.69334885297031
H          -2.45294788557006    0.02763106834808   -0.82119797118532
N           2.09883567101752   -0.74365424958361    0.26080496177868
H           1.49824193454167   -1.41313461553750   -0.26576355943925
H           2.09960531175836    0.16456963341971   -0.24194484444358
H           1.59566870874919   -0.57026542814579    1.23148230745395
H           3.03581359326038   -1.10315959759135    0.40030109093280
