    26
        -50.44612559  Gyration_radius:  2.52964284582 Dipole_moment: 5.110
 S           0.56048885465541   -2.16658884522596    0.73379555698808
O           1.67648754979575   -1.41495833212336    0.21397385111590
O           0.62914958352643   -2.57099337721725    2.09005906927398
O          -0.72760755339821   -1.28176198058689    0.52843819043381
O           0.25334968247586   -3.33472589100114   -0.20299063500323
H           0.46921767771368   -2.97908759122253   -1.13431641485207
H          -0.82628656323439   -0.59050193872138    1.25597560467902
O          -1.16224311679407    0.62158215182191    2.18600629125909
H          -1.83964669817552    0.37469855875940    2.81879439848743
O           0.19962287381698    2.24966723878739   -1.05728447958128
H           0.63960838948377    3.01604818219646   -1.42542900204790
O           0.94824444290967   -2.08077726787669   -2.29337052195413
H           1.61431554008642   -1.66141232567729   -1.72926688749304
O          -0.86874100126350   -0.12954118181382   -1.98290558750263
H           0.25016207618697   -1.39951200297782   -2.42763261846836
H          -0.99042770041528   -0.52284672622236   -1.10611619854646
H          -0.42849609323544    0.72363026930964   -1.83125430584096
O          -2.19907743509662    1.89314544529403    0.12653134861272
H          -1.37848215072864    2.18671123408109   -0.31998710306052
H          -2.60968848883813    1.27121276790829   -0.48003916693064
H          -1.59964987770758    1.19134279561435    1.49654185531925
N           1.55074093170311    1.31892856973506    0.99531543462998
H           1.74437249106860    0.35379723280054    0.72692150091776
H           0.91233805301268    1.27973572488673    1.78219699990893
H           2.41843582187474    1.72630922751643    1.32043435056245
H           0.76381271057788    1.92589807194414   -0.28439152089598
