    26
        -50.44612559  Gyration_radius:  2.52946910959 Dipole_moment: 5.109
 S          -1.62556095130557   -1.60476022727331    0.56904268498565
O          -0.27156354766792   -2.01576202252724    0.84885825416201
O          -2.51161543976013   -1.50547076195401    1.67026771487823
O          -1.54368152355769   -0.20429073776600   -0.14945604037604
O          -2.19664814710187   -2.46698893252259   -0.55654405217234
H          -1.39773932661866   -2.66119300508235   -1.16016968480360
H          -1.43019537694609    0.54903783557462    0.51125949556859
O           0.03407716771782   -2.74052139477842   -1.72843626014698
H           0.41696497008128   -2.73743517390078   -0.83903697741159
O           2.22373125823800    1.04831522666572   -0.41942427408580
H           3.17378237276562    1.15454318646881   -0.36929071189046
O          -1.15366811567609    1.87392678476092    1.29545807148566
H          -1.97100315162951    2.36023515249617    1.42065100135064
O           0.38351737531890   -0.11019923629851   -2.13164663521105
H           1.15650857553820    0.21053933935145   -1.63746774604755
H           0.23594948843354   -1.85341871621719   -2.10498561826516
H          -0.36970511211159   -0.02165596890356   -1.52909482308224
O           0.19558201954020    2.79317334960847   -0.77027926691237
H          -0.64325015831877    2.33952734357595    0.57853541385018
H           1.03298322190502    2.29796384489909   -0.65803692532361
H          -0.18401903366923    2.46710683407298   -1.59054689146941
N           1.28419997075900    0.14180259445549    1.86107942764489
H           0.80732121534027   -0.71836575012593    1.58962805520095
H           1.91761156103991    0.68728723083621    0.47300536524925
H           0.56598645957467    0.78822490605147    2.16850888072394
H           1.87043422813037   -0.07162169147599    2.65812156208013
