    26
        -50.42724566  Gyration_radius:  2.98147935995 Dipole_moment: 4.963
 S          -3.29407134446347   -0.76947006178756    0.37370091197077
O          -2.72868510911661   -1.49841819653045   -0.72333841464436
O          -3.65125233214425   -1.46601302396736    1.55264393687878
O          -2.38980936974380    0.44625452786415    0.69185015716263
O          -4.57532828216528   -0.02422535821725   -0.18200930373966
H          -4.37403023208487    0.22769147024008   -1.08097347325656
H          -1.65941951154577    0.06202899329104    1.29734619486946
O           2.15346438598122   -1.33595672547586   -0.39854932316868
H           2.13651494217473   -2.28945638613146   -0.31535941626354
O          -0.65888744686678   -0.64294107692061    2.14273318339082
H          -0.87918434999779   -0.56303282729951    3.07237014305861
O           1.14767074735932    2.19617616574310   -0.47349633002351
H           1.27259027581787    3.14550407503909   -0.48894787704342
O           3.34568024179129    0.90699345278937   -1.39513724554338
H           4.10711249476841    1.05857530880673   -0.83198578973686
H           3.02125015678695    0.01486531827075   -1.17270331069232
H           1.91724733552318    1.80060467987084   -0.93843167712601
O           1.62740067617614    0.45165701249026    1.59714846743724
H           1.37396797456147    1.17255762410040    0.99199787542603
H           0.24099514649905   -0.21522632808100    2.00461546610070
H           1.96204344274822   -0.25127499486605    1.00797108456786
N          -0.11044927827304   -0.46707093109966   -1.39030546962843
H          -0.10204859524296   -0.41335411081239   -2.40140129484966
H           1.25518551712660   -1.06693493681022   -0.78810862859539
H          -0.17961512529101    0.48120086121264   -1.03530864913716
H          -0.95834235934764   -0.96073453243373   -1.11632120727129
