    26
        -50.44033170  Gyration_radius:  2.68468809489 Dipole_moment: 1.943
 S          -1.79757842079446    1.78527091110058    0.79114911986754
O          -1.36527200426162    2.02326975418084    2.12828456000801
O          -0.94845274477849    2.18256548945558   -0.28852475302406
O          -2.19604219722836    0.32277765933662    0.63463251709022
O          -3.16575822402328    2.56190772241743    0.58931016466865
H          -3.61766170503126    2.57033246392010    1.43056037504243
H          -2.20652091460174    0.14046916926948   -0.41673782451540
O           1.52563748254068    0.90366827133425   -0.52658413017849
H           0.90443566369521    1.63277036301678   -0.64268718802229
O           0.93155628166013   -2.66006158393701    0.30195474516501
H           1.06617967251189   -3.60842887156364    0.29868236065902
O          -2.03829527826061    0.15181694553989   -1.82239128618018
H          -1.74412414765411    1.06622076658431   -1.91944856051648
O           3.13274480345722   -1.39178245465034   -0.67991472539709
H           1.80323321189942   -2.25348828315581    0.10603904210998
H           3.07587540026587   -1.57076024541606   -1.62179319134609
H           2.85530335780699   -0.47013815826175   -0.57305576528820
O           0.23689879814475   -1.05626096161138   -1.83591833042836
H           0.24958144478853   -1.72926588019576   -1.13407710031343
H          -1.20377601798807   -0.40706097705035   -1.93582800900949
H           0.75902807719634   -0.30773709360238   -1.46412365777226
N           0.73270942143416   -0.02069018139645    1.83023579599152
H          -0.00778150550896    0.61492731226234    2.10712028483998
H           1.32521580304265    0.57445009589613    0.39560497656996
H           1.36804934060095   -0.12630031322796    2.61076784008875
H           0.32481442085115   -0.92847193951032    1.63674275015601
