    26
        -50.44974497  Gyration_radius:  2.55342103316 Dipole_moment: 5.641
 S          -2.22389157607572   -0.89565636121026    1.17589249902348
O          -1.03153077646813   -0.16021148036113    1.54018791319887
O          -3.13019360018163   -1.21905114275929    2.21026397849773
O          -2.96847214480270   -0.09980668265991    0.07215381732252
O          -1.78180113657466   -2.19915237456466    0.46018428780638
H          -0.91906323777530   -2.07759366526150   -0.03143534129815
H          -2.33945887498749    0.42648251377237   -0.49654640521762
O           0.52116191678045   -2.04427836178319   -0.71438409607072
H           0.81786690354725   -2.94664912891391   -0.84319173044821
O          -1.42675913627179    1.43410394181102   -1.35127129774291
H          -1.99493720329766    2.12485967315681   -1.69651309308651
O           2.32635709170795    1.46650152189058   -0.29560237410758
H           2.90002544551608    2.12930344525548   -0.68161825254714
O           0.94252443574994    0.24632549612467   -2.20262852660865
H           0.81921244851342   -0.64700499001619   -1.84370673115631
H           0.07445031651502    0.66999103194476   -2.12099731199286
H           1.88630672804737    1.00341695535999   -1.05499350450132
O          -0.10218090511155    2.22600764687925    0.69835587093296
H          -0.40903893509408    1.46253418657909    1.21957330357035
H           0.82868750345181    2.03299168206500    0.46789514765078
H          -0.91002334341584    1.84155370606705   -0.57993875732754
N           1.71565130261188   -0.94962640685839    1.29869020919122
H           2.27924095777515   -1.40914896255023    2.00102019401911
H           1.06244932252341   -1.65667586701750    0.06892296052122
H           0.85058377567103   -0.63144871252248    1.73044566940785
H           2.21283271162444   -0.12776768442589    0.96924155095259
