    26
        -50.46373149  Gyration_radius:  2.44873655472 Dipole_moment: 3.701
 S          -1.26956470852676   -1.01877793965628   -1.12832151799873
O           0.18783327020423   -1.17962331216594   -1.06088357675646
O          -1.71760313263259   -0.52136500501197   -2.39228629563712
O          -1.85242883895261   -2.50651773554935   -0.98454135086156
O          -1.76019102786280   -0.31597448875457    0.04450393520703
H          -1.50025019086252   -1.38980633537994    1.30973146836561
H          -2.10032423190083   -2.72722382835069   -1.87682944635029
O          -1.11261340798155   -2.06319186464241    1.91015422820839
H          -1.29555060866676   -2.90367529123169    1.48563332130216
O           0.64902273048915    1.12182740637973   -2.29331992371768
H           0.05443990185995    1.13453853263677   -3.04770343203100
O           0.64834509393422    1.88566843768616    1.85077384138859
H           0.10006968274656    2.09066580019011    2.60923957448054
O           2.67570226417214    1.05904867770093   -0.12364344671284
H           2.33681600876287    1.76893290738124    0.42892408216196
H           0.56943346712759    0.21678733071449   -1.93345289863239
H           2.25962515636535    1.16912066064566   -0.98479811493206
O          -0.82731641333915    2.18279277151874   -0.26249952154002
H          -1.36037989993582    1.37436419825674   -0.15708210911021
H           0.08936658923568    2.09918876269039    1.04682459355706
H          -0.26942768665471    2.01678288330993   -1.04637184337299
N           1.11750121121268   -0.70640569480652    1.34581532801862
H           2.09494774506513   -0.94404795617343    1.48444854067700
H           0.86930956480800   -0.83680245082994    0.32509602087617
H           0.44745552658526   -1.31636425159839    1.85901771721148
H           0.96578196476988    0.31005776505148    1.59157083619986
