    26
        -50.45793652  Gyration_radius:  2.8233601991 Dipole_moment: 4.330
 S          -1.40709274637831    0.87676654385167    2.54320602140667
O          -0.08175840242727    0.30803075190289    2.75808881296094
O          -2.24678539267851    0.92548114177219    3.69439888004176
O          -1.13951053764550    2.42114225070982    2.12838592956371
O          -2.01963947616860    0.31090554116353    1.33591906888678
H          -1.43031460515085    1.20891613444338    0.10376462730962
H          -1.32351496213074    2.84871127923573    2.95761793713060
O          -0.86220713670311    1.65274211530408   -0.57299027821324
H          -0.79154822011171    2.56156547867255   -0.27468750687367
O          -1.30445642910789   -1.87516178114537    0.07730958444287
H          -1.66686778581422   -1.10393082140656    0.57694126126376
O           1.80030039498156   -1.04596662696275   -2.81689815969420
H           1.96878027260845   -0.69902240373755   -3.69343805225138
O           3.31308386752694   -0.51794949154356   -0.67723868541567
H           3.90400832257230   -1.25809989582954   -0.53370241510336
H           2.85487230625158   -0.68907278665287   -1.53070431870490
H          -1.79310132604184   -2.64303258690065    0.37434685475399
O          -0.78348786001719   -0.55242168427565   -2.31340786757025
H           0.83892644230969   -0.90357201582024   -2.65208974598092
H          -1.10795219662747   -1.15231032075755   -1.62363342425892
H          -0.93056077111069    0.33863456353626   -1.96937182818982
N           0.86958550481643   -0.20768661763624    0.41945625761129
H           1.88502374048506   -0.29052094486786    0.20447476750272
H           0.37301331660900   -1.07266409471264    0.16886538004664
H           0.63544091164251   -0.00845792854709    1.44194160244420
H           0.44576274853564    0.56697415995232   -0.12655470268090
