    26
        -50.45123047  Gyration_radius:  2.47024912693 Dipole_moment: 4.658
 S          -1.91430310200750   -0.55659964021553    1.33028238629394
O          -0.77422062589027    0.32046979067578    1.47916425899651
O          -3.02620596124307   -0.28590889420926    2.16335682138706
O          -2.32091061534687   -0.55464664397079   -0.17394524873789
O          -1.45259424318943   -2.01305069706259    1.51469695772329
H          -0.80370844535241   -2.18018978215828    0.76557515518309
H          -2.05668605940841    0.29365765775202   -0.63380579244004
O           0.12047372804395   -2.39225669057105   -0.48033907389970
H          -0.30714455405190   -3.04859142563045   -1.03407936567154
O          -1.59816909510198    1.59261807471459   -1.41881046891512
H          -2.32528891759692    2.20450763041787   -1.54274618615006
O           2.32372464615794    1.08444993459610   -0.62384788383842
H           3.25388151908354    1.19873227759231   -0.81937761139725
O           0.42360642506161   -0.29676566957335   -2.02778886444761
H           0.22650892089676   -1.58319533148565   -1.05707418790913
H          -0.34080699117570    0.29147082526538   -2.05474141936626
H           1.14997458596450    0.22741828006145   -1.64065400033283
O           0.13912541523694    2.52883505547926    0.23602828241349
H          -0.13658279086151    1.88145492741337    0.90823890264794
H           0.99752783474819    2.20488925915757   -0.08835268750603
H          -0.92940793127010    2.05220689267439   -0.81700562285986
N           1.90527975494614   -0.67722952230729    1.29624888449061
H           2.43291817821535   -0.77622041733454    2.15397367860766
H           1.78224837781843   -1.59954610849498    0.89438726157586
H           0.97397461300487   -0.33968613763349    1.53984841394348
H           2.25678534332107    0.42317636485456    0.13076742021322
