    26
        -50.45653072  Gyration_radius:  2.55747538656 Dipole_moment: 6.222
 S          -0.14491160035708   -2.52197021697349    0.40527300964303
O          -1.12535679565192   -1.47812963485513    0.70328607256814
O          -0.18659829752755   -3.64524110955772    1.28669665922395
O          -0.55650702749862   -3.09273348075723   -1.04968826926305
O           1.17068941660869   -1.91829728252048    0.20724998372014
H           0.58670656590587   -1.04574888657384   -0.99331049062213
H          -0.93304563277779   -3.93631744191684   -0.82002721484544
O          -0.86011989893154    2.70599713347640    0.25788820927852
H          -1.42557714663113    3.46497280400880    0.40371235311546
O           2.31439197593882    0.25034130581029    1.30603528681178
H           2.15753773682054   -0.64580991671208    0.95327264307825
O           0.23347311235458   -0.53674759495101   -1.76366660581990
H           0.05363467723896   -1.21137488266825   -2.42198763577464
O          -1.92227174176746    1.04553418092285   -1.47430094398790
H          -1.99291236249228    1.29827622201958   -2.39662897632364
H          -1.25042833453397    0.33000997834194   -1.43977323403623
H          -1.32522608499359    2.12427886022714   -0.39844899992552
O           1.63143990565993    1.72263493695823   -0.84752592284867
H           0.89593859132403    2.25104119217200   -0.51366888688355
H           2.33275041189174    0.83507156150353    0.51689090315654
H           1.23464681467611    0.99072511130944   -1.34240521067202
N          -0.18972098860753    0.61855094450308    1.90740665550530
H          -0.62807657094827   -0.23458811572196    1.42894479120266
H          -0.45425663444175    0.64093820373270    2.88546052063912
H           0.87922971791897    0.51170866868209    1.78683216529292
H          -0.49542980917322    1.47687744953795    1.41248314776080
