    26
        -50.45653081  Gyration_radius:  2.5577795863 Dipole_moment: 6.223
 S          -1.47115310351799   -0.91988877439935   -1.88096401877516
O          -1.74044544468184   -0.85093962243007   -0.44485999763373
O          -2.10453512482829   -2.00991372755186   -2.55253806802926
O          -2.12854448745040    0.41852410870837   -2.50439692312344
O          -0.03722273000986   -0.77349880142933   -2.11957343209170
H          -0.06739685966281    0.65498637162707   -1.41057681977051
H          -2.89684432468564    0.06371126716907   -2.94023939615605
O           2.09252938709965   -1.51913527844408   -0.66148310243412
H           1.47948826632307   -1.35137421860394   -1.40185389138468
O          -0.09573188211015    1.55770202436943   -1.00857845279080
H          -0.61116511233374    2.07160229410320   -1.63398086256796
O           0.72246161735255    0.45239777005315    2.72064868907405
H           0.65200898446512    0.55166775182826    3.67051330731655
O           2.29767718463495    0.97434665477756    0.34463743057605
H           1.95999089710026    0.86453784343079    1.24217816409089
H           2.41875512751019   -0.63168179694418   -0.39499037917317
H           1.56939297847469    1.34743911165653   -0.17348771555613
O          -1.06712080248064    1.91186647829643    1.47440995554216
H          -0.88265877698995    1.63324646235967    0.55086166437614
H           0.01671909317515    1.02406623172314    2.31982616150995
H          -0.99315162565817    2.86790392112047    1.48236166679773
N           0.17572530595714   -1.68482895926273    1.08953432195544
H          -0.65258898338961   -1.34886436046619    0.49792434353181
H           1.02131782047564   -1.73476919312033    0.41782321610177
H           0.37521398744021   -0.97890830726237    1.82237192554506
H          -0.03272139220071   -2.59019523135987    1.49443220308117
