    26
        -50.44437972  Gyration_radius:  2.55215602441 Dipole_moment: 6.723
 S          -1.84321610854430    1.48753506172947   -1.35320918421895
O          -2.83899443537169    0.61563904377636   -0.79881102680483
O          -2.17014799672149    2.84704061644448   -1.56730736711095
O          -0.57238707834280    1.38502743579890   -0.42690821243382
O          -1.30808345667168    0.88828101815598   -2.68123616598131
H          -0.99258049240110   -0.03310117301908   -2.50024040550587
H          -0.87197969718710    0.80334711260162    0.36213303221023
O          -1.53540663501139   -0.11287959241744    1.36881412223055
H          -2.36363125187527   -0.06329420665753    0.86285350609783
O          -0.11380995000423   -1.39059113450083   -2.16626623158699
H           0.09062098817807   -1.84134175735803   -2.98740686214740
O           2.12993038994518   -0.93461678339599    1.18678909093703
H           2.88919308785574   -1.23400073757268    1.68755552309690
O          -0.23374834852882   -2.23196492681833    0.51798000031927
H          -0.31173292810966   -2.12319140528618   -0.44125674820675
H           0.66459647577221   -1.94474208410688    0.75326771047562
H          -1.13592697270371   -0.99815937666937    1.15220198077005
O           1.79124223609343    0.13660991985686   -1.28666405700793
H           1.17967684642969    0.84893438852219   -1.05257794539419
H           2.06589132202030   -0.26323034317462   -0.43966886244643
H           0.70462603085245   -0.87109666490677   -1.90785240482944
N           0.93903633040755    1.10645789289771    2.41840344642303
H           1.22534630120624    1.45926846672270    3.32316164567693
H           1.71749446139700   -0.17934603025151    1.69782611708136
H          -0.01016435203357    0.75523128487595    2.50400064704878
H           0.90415522336051    1.88818395475253    1.77441866131639
