    26
        -50.45730952  Gyration_radius:  2.44931665407 Dipole_moment: 7.992
 S          -1.88986119540131   -1.37388584705560   -0.63451936449867
O          -1.80161790079491   -0.48160445144245    0.56257662552566
O          -3.22274964022474   -1.76119503490911   -0.93238624430169
O          -1.12542786043341   -0.79055003309348   -1.72859710215497
O          -1.05567540427876   -2.65347648093621   -0.19700607012874
H          -0.14680605230557   -2.39477544414447   -0.42563725161304
H          -0.67592861372136    0.68137327705369   -1.96402605461960
O           1.51864220533445   -1.82054659690222   -0.40423612411987
H           2.02139982446154   -2.34978325299632   -1.02420503600193
O          -0.31438736085581    1.60637483268645   -2.07790520745139
H          -0.49311894305322    1.84559566372358   -2.98785143782150
O           1.09718176471656    1.71606894794441    1.64138615593310
H           1.29194659447737    2.43811460267628    2.23901047016552
O           1.94510658353232    0.71534151750303   -0.85141216279249
H           1.67169228463531   -0.86643657229153   -0.66796614671562
H           1.22401389210072    1.07511536729203   -1.40302824440885
H           1.84997634411497    1.15074066998234    0.00840093127652
O          -1.15565261774459    2.10972134266108    0.46167374065831
H          -1.57446195515102    1.22718151793074    0.53679784491330
H           0.21339160651883    1.94371422223889    1.20099654407082
H          -0.92767131065930    2.18637987494539   -0.48100371101358
N           0.33232737341080   -0.85430278980482    1.85672715504059
H           0.19477326412335   -1.30893437126149    2.75187908403831
H           0.93105453892299   -1.41641816183587    1.23733103637707
H          -0.64319263966352   -0.72651779994029    1.32439648316725
H           0.73504519795937    0.10270499001117    1.95860411649656
