    26
        -50.45004747  Gyration_radius:  2.53798412871 Dipole_moment: 6.004
 S          -2.02876851856725   -0.99727395038873   -1.32344272893211
O          -1.73984145386050   -0.39610027698695   -0.03972544516051
O          -3.36136251706629   -1.39462934545031   -1.57374763285212
O          -1.55807150145559   -0.02118062962976   -2.43327884895455
O          -1.09484975966133   -2.22462606138849   -1.49765304491656
H          -0.21277845915248   -2.06598951295254   -1.05629222068487
H          -0.88752733161538    0.64288172963254   -2.10426476536706
O           1.16576203577370   -1.95752574704345   -0.25632282083429
H           1.57479082947827   -2.82319086586608   -0.21175725389339
O           0.20673685934524    1.74849243306391   -1.75576084039534
H           0.56099923190235    2.09510909734617   -2.57621114877495
O           1.19375522295061    1.47493449596080    2.00053571926404
H           1.55391279761883    2.26456226995419    2.40575607113237
O           2.11293990667499    0.62487163891775   -0.42105578503340
H           1.91340956722468   -0.32467166509711   -0.45009245227535
H           0.97860400566045    1.32061608734025   -1.26821078759747
H           1.91372524714224    0.90594316743412    0.49519956243448
O          -1.03182063405857    2.09647290801146    0.72204432199879
H          -1.43931117817002    1.22519785907083    0.56912057517441
H           0.32415702286982    1.74136802609865    1.59853781068763
H          -0.70701074099024    2.36014635228831   -0.14867509370093
N           0.09832291419631   -1.27188924238913    1.98676252046496
H           0.56401280143204   -0.43591979155584    2.32705071997322
H           0.79175033547236   -1.74683571493972    0.68044951598358
H          -0.11682431134412   -1.86628992947425    2.77582031592613
H          -0.77471235180286   -0.97447334195699    1.55521371632829
