    26
        -50.45090887  Gyration_radius:  2.4718256401 Dipole_moment: 5.662
 S           0.83642469311577   -0.07398627987896    1.99919812628332
O          -0.60187283875393    0.02971193577264    2.02288713514833
O           1.38922170476108   -1.28382825207902    2.50305426577971
O           1.30236844173287    0.08383086296681    0.50519682983602
O           1.43959467179588    1.16371311596886    2.65226262937654
H           0.76815410489417    1.92801150528009    2.47524735967747
H           1.21108529167092   -0.85710879278692    0.12776197561942
O           0.85364784932876   -2.33431782209365   -0.09519302512033
H           1.14780033841572   -2.66430130716989    0.76148672610606
O          -0.43425539481822    2.74622935769284    2.06165695758957
H          -1.08743749590166    2.06140310360659    2.25428452740904
O          -1.64643047333135    0.22813040403018   -1.78232013577363
H          -2.27872900031842    0.28732738414098   -2.49957624440809
O          -1.63579796686222   -1.67422063382092    0.21493979963960
H          -0.14494959170999   -2.25009408716636   -0.02942620951455
H          -1.45983760813182   -1.12481093891507    0.99912037383435
H          -1.81218754271247   -1.03540089947547   -0.49911143033104
O          -0.15522818772627    2.20364867362647   -0.52504600304275
H           0.53281215429645    1.56072839048586   -0.30563975737757
H          -0.86694075944062    1.67587139605438   -0.92365856155566
H          -0.37330603866532    2.76970712413468    1.07537491375084
N           0.70077108880091   -0.72846206530556   -2.66735668399472
H           0.82767155856764   -1.01499139087155   -3.63017031337805
H           1.41165792995570   -0.04017101845113   -2.45063995843982
H          -0.79665485524511   -0.12164435760715   -2.16838005961882
H           0.87241792624941   -1.53497542815545   -2.07595324741752
