    26
        -50.45993503  Gyration_radius:  2.82247934462 Dipole_moment: 3.718
 S          -2.74515404596632   -1.03583756229433    0.18138938893529
O          -2.33571838234118   -0.43535189968544    1.45097007760271
O          -2.69404392411924   -0.10164500309612   -0.92044900332052
O          -2.01995935179735   -2.27227365700672   -0.07314984939888
O          -4.26900980422254   -1.43941861671765    0.36084120924325
H          -4.22628548775869   -2.05450770222774    1.08643116193625
H          -0.48111080401699   -2.13242651839312   -0.38153105728146
O           0.50643732848804   -1.99170931152313   -0.43524649367962
H           0.90074519461456   -2.83627199445539   -0.21278568243738
O          -0.78285302913993    1.57786133785587   -1.34931027165443
H          -1.53512929747992    0.93318708157110   -1.26274923521690
O           3.20982811311615    1.21083055727295   -0.28089356156656
H           4.06612356238935    0.84668019082452   -0.50691708309957
O           1.47905235686282    0.10934500656454   -1.98967455561626
H           1.17956874386689   -0.74488216019474   -1.64378660435122
H           0.68993766188235    0.67250917887195   -2.00790626953571
H           2.57701087629853    0.83943783792967   -0.94244972584596
O           2.23727953848023    1.33021060172144    2.20660269053880
H           2.34068996948833    2.22957339551353    2.51967127716138
H          -1.17402782089424    2.39854516996634   -1.65078654326587
H           2.69762491882068    1.28539913986883    1.33820672512509
N           0.08637026908863    0.33439802636529    0.92328478862896
H          -0.07091429497046    1.01089568641977    0.15645480586256
H          -0.86671653223889    0.08895524114684    1.31761777422800
H           0.46091676845744   -0.53862618733685    0.50549828583874
H           0.76933745290512    0.71512214078310    1.61066774124545
