    26
        -50.45993440  Gyration_radius:  2.8229195001 Dipole_moment: 3.712
 S          -0.47900867709255   -1.51454256669873    2.47465746425108
O          -1.38573230810085   -1.95662899454857    1.41539809334946
O           0.91315900409036   -1.67394125886466    2.12028665810517
O          -0.81262738715035   -0.17070915568567    2.92457712717772
O          -0.74393436189604   -2.47693218136964    3.70772100604786
H          -1.66000032035859   -2.30327398583533    3.90070252157487
H          -0.55048461047519    1.00053435099657    1.90343123673495
O           1.93003898992771   -1.07251164177439   -0.17317802176909
H           1.61098878730188   -1.29218506942791    0.74279891527852
O          -0.49021805963506    1.67716829608304    1.17098251701325
H          -1.07064512897823    2.39359803512562    1.43169566546918
O           0.62929075826005    1.78074679097968   -2.87840375606928
H           0.64020331949785    2.70372472006790   -3.13323837304441
O           1.76753590054947    1.67888078831735   -0.46561141263016
H           1.10109679867018    1.84143437238296    0.21887590678882
H           2.06472236635496    0.76652620317691   -0.32618869947288
H           1.09141235608086    1.73750619936095   -2.00617973648627
O          -1.52143472378125    0.20174465088326   -3.04824651443468
H          -0.77713496238573    0.84496726204553   -3.06669066624276
H          -1.42345160810777   -0.34537344355187   -3.82837407170600
H           2.57176264647389   -1.74761080125699   -0.39643407725693
N          -0.69495702588322   -0.42025847581360   -0.55917692512140
H           0.29547106707552   -0.68711288028500   -0.69520462223576
H          -0.71325359287839    0.50041240723084   -0.08100651169549
H          -1.18223370829033   -0.34884875305404   -1.47642510203598
H          -1.11056553880754   -1.11731485793639    0.12323139850516
