    26
        -50.45730965  Gyration_radius:  2.4488108907 Dipole_moment: 7.981
 S          -1.76751859254943   -1.43528370104090   -0.81776480892858
O          -1.77009912459012   -0.66624933168490    0.46505353796252
O          -3.06162739139662   -1.88436895355293   -1.19050837325006
O          -1.02583653476638   -0.68987829522408   -1.82572272541654
O          -0.84990287462752   -2.68979825895825   -0.48789541875612
H           0.04139781876288   -2.34492665579781   -0.66667502686635
H          -0.68923118195083    0.82847763746025   -1.90185218547379
O           1.65808227905931   -1.65590448888630   -0.54635604763632
H           2.20828680929757   -2.08050741229849   -1.20526963930405
O          -0.39790333557499    1.78467031436662   -1.91339400172494
H          -0.57740021468539    2.10093618661425   -2.79933990169512
O           0.93512439586151    1.61496951236470    1.83330626055128
H           1.06378800490558    2.28406350456073    2.50575540521748
O           1.89938554303969    0.93715672682318   -0.72511843330647
H           1.74242364023815   -0.67123647824438   -0.70906217352529
H           1.16370312017827    1.29857508281951   -1.25594181754533
H           1.75690812931991    1.27482689848169    0.17130347872889
O          -1.31929723351806    1.96193935275418    0.64216981757682
H          -1.67148309915012    1.04800117907160    0.61716395590048
H           0.04489969000401    1.82148989268969    1.39537415173773
H          -1.08132280823360    2.15172122028380   -0.28181999774090
N           0.36233073133883   -1.01271403444145    1.76925484470356
H           0.24286287381168   -1.56501169664412    2.61047008662082
H           1.01242264248801   -1.46407573273398    1.11222399827361
H          -0.61020021936594   -0.90260975406651    1.22777951317416
H           0.69020694210445   -0.04426273471825    1.97686553072099
