    26
        -50.45495410  Gyration_radius:  2.70764427254 Dipole_moment: 5.631
 S          -2.47989628789301   -1.34021664285791    0.16227975375319
O          -1.91200453186675   -1.35492413935689    1.51608415803149
O          -2.79093882689985   -0.01507233197529   -0.31140581587329
O          -1.63755354086144   -2.10331603217991   -0.74859888644292
O          -3.85734164379935   -2.12268417258027    0.27798151446083
H          -3.61450608007700   -2.91327882862119    0.75073031282183
H          -0.05090466081285   -2.13285618469298   -0.89514016173729
O           0.94491356434949   -2.14400782593016   -0.87160420342754
H           1.20137183794122   -3.02326361497328   -1.15128245078764
O          -0.63277371369607    1.31360222135548   -0.87516382504591
H          -1.52856487858744    0.90755383201108   -0.78592573048474
O           2.61639955800847    1.40070373325453    0.55955419777874
H           3.49828249664839    1.75940968837603    0.45778946983541
O           1.80876590838125    0.34201069817664   -1.73920942566667
H           2.38316407510141    1.00476287629933   -0.31976339568349
H           1.61000591511681   -0.60026929475252   -1.61026514096504
H           0.94391197639166    0.77314362298478   -1.80626481137084
O           0.44266472944772    3.03063899788166    0.96426048998165
H          -0.63058489843893    2.13968593892790   -0.36673227829951
H           1.26737339273975    2.51603319825436    0.86485866933523
H           0.69444879737554    3.95309853005559    1.00702430515689
N           0.36701922252320   -0.27660008532295    1.01252235871175
H           0.93323837147633    0.20352543691903    1.70688347731556
H          -0.53807891493139   -0.70342592616657    1.39329370502451
H           0.06242802921627    0.41133992646473    0.26144387613749
H           0.89916010314992   -1.02559363155360    0.54664983743796
