    26
        -50.45495412  Gyration_radius:  2.70761958982 Dipole_moment: 5.632
 S           1.23020261881379   -2.42813480366025    0.74950620562175
O           0.05867662028894   -2.27216122927577    1.62049082501054
O           0.88946409704243   -2.58491340145218   -0.64202717079643
O           2.19208674725159   -1.36317292215423    0.99883783762163
O           1.91716698386767   -3.78400210437915    1.21083893367083
H           1.96340603586287   -3.68801950002159    2.15749402534290
H           1.95862427581225    0.19851400224882    1.21508710357282
O           1.71816887395522    1.14545976388482    1.40955669374625
H           2.39314429726939    1.46697991333287    2.00793801516377
O          -1.85866576531242    2.35006050886562   -0.36952685613694
H          -2.19292860162694    3.22602560889756   -0.56350574714027
O           0.05232043161815   -0.34918162393165   -1.66208229283582
H           0.42654013984799   -1.23516500604429   -1.43776135825209
O           0.73318027922935    2.23284680926988   -0.94125514751560
H           0.73103639531776    1.42545274486245   -1.47650450847003
H          -0.89007509706416    2.37777283111223   -0.58250870609235
H           1.23200835657252    2.00142390571145   -0.14021050211319
O          -2.62954559296803    0.16130858562983   -1.84051712443671
H          -0.82817521054275   -0.48830741505920   -2.04485314619673
H          -2.44048463514167    0.97633718947401   -1.33580119831617
H          -3.25589198798859    0.39724461915337   -2.52483432556892
N          -0.70810549566308    0.05992646573754    0.85681056529558
H          -0.54506236715160   -0.91820706138613    1.26061525108267
H          -0.45891176259272   -0.01343125988803   -0.17410848437922
H          -1.65908656413497    0.40525733727220    0.95527463600479
H          -0.02909308256236    0.70008604180573    1.29304646611653
