    26
        -50.47298316  Gyration_radius:  2.48792592043 Dipole_moment: 1.903
 S          -0.63194058129962   -1.43156589632301    1.46821326865162
O          -2.04055249943162   -1.09236108322917    1.45685004843200
O          -0.19785141608282   -2.20972637180278    0.32753741086852
O           0.20850863195892   -0.25488559890054    1.67912996288580
O          -0.41813493037475   -2.35967926172439    2.73595737276388
H          -0.99056035721664   -1.95476985450599    3.37888679755374
H          -2.44859039258398   -0.09136063099095    0.26961098445089
O           2.28172007073194   -1.21336455340294    0.42669041796158
H           1.69999508389321   -0.72783515671878    1.05086376238345
O          -2.60321986921437    0.52628475070672   -0.49110268086265
H          -3.55198669895971    0.55193591395794   -0.62528656920420
O           1.35274456859686    2.73907670835665   -0.76501714066952
H           2.00615327449245    3.07717139465315   -0.15086690237441
O          -0.71001616780854   -0.84203967002958   -1.89289720363991
H          -0.58223235860767   -1.48608825312634   -1.16504588260287
H          -1.43552917769985   -0.26688706768917   -1.58937279096119
H           1.75009053816668   -2.00273969081805    0.24636956576812
O          -0.67608731414718    2.09202694629902    0.74189720618296
H          -1.44435791357756    1.78625529298790    0.23685590536118
H          -0.34335075820415    1.29293583425298    1.19663295041827
H           0.53038989053790    2.58595487665142   -0.22022598648321
N           1.66634003677007    0.26370537595306   -1.68231323728831
H           0.68817737204835   -0.11826332848831   -1.87486277402273
H           1.58989685724285    1.27209715058826   -1.37752452218418
H           2.04896520761157   -0.31345996758145   -0.87531225076592
H           2.25142890313422    0.17758215097838   -2.50566773263138
