    26
        -50.47298372  Gyration_radius:  2.48784600623 Dipole_moment: 1.941
 S           0.68395354623756   -0.04722843719301    2.03408348603035
O           0.10515521393172   -1.32746244416408    2.38750147832081
O           1.87743899575938   -0.13787324626804    1.22047032508594
O          -0.30884618408553    0.85461197710239    1.45295438220383
O           1.13763801416686    0.62038352926255    3.39880503218530
H           0.41331504762002    0.40649091071845    3.97731907893283
H          -0.47835598066345   -2.13934933531727    1.13163012953401
O           1.40207678768963    2.21171315763757    0.03367495930103
H           0.62929778366257    1.94564930685513    0.57770818888751
O          -0.81020602205030   -2.56209366136846    0.29775273990038
H          -0.96541420130086   -3.48393720168040    0.50955530064151
O          -1.98933264748429    1.03545646655906   -2.20976932595479
H          -2.39304885122474    1.89104814298802   -2.05685209156061
O           1.29399358027443   -1.44242277207976   -1.02030755240858
H           1.65735927287804   -1.05965469123961   -0.19433286252844
H           0.52165060618980   -1.96253221019943   -0.73321087867521
H           2.09013270365974    1.62460330750641    0.37988064915396
O          -2.30473063304891   -0.24087170277760    0.04358033440127
H          -2.19427352647331    0.49598520885170   -1.39528872656225
H          -1.99667609380807   -1.15879596737670    0.00874605967185
H          -1.66534725540774    0.21456437944337    0.62654923976436
N           0.66206563509304    0.86092593949094   -2.11943955462405
H           1.13995744148991    1.06309194083755   -2.99027045608831
H           0.89179721200006   -0.12675634071535   -1.78512489831980
H           0.98423133636679    1.51186488245405   -1.34271660552555
H          -0.38383177174628    0.95258887988873   -2.23289845152566
