    26
        -50.47071323  Gyration_radius:  2.41589249877 Dipole_moment: 4.163
 S          -0.19178603955390   -1.98345157242437    0.37488254469119
O          -0.65138776276019   -1.82935075884440   -0.99548641238333
O           1.18560774421276   -1.60697335824121    0.58249454258820
O          -1.08982793261239   -1.31586939576025    1.31969982796333
O          -0.28396445647318   -3.53117365778059    0.69544161164454
H          -1.13949251520844   -3.76043851830954    0.34901912876736
H          -0.12556762710851   -0.37620808783538    2.26695855233088
O           2.45024339893716    0.29486356857678   -0.78870601578567
H           2.19694950794760   -0.52011223000903   -0.30979716013344
O          -1.17953751420668    2.05092982304463   -0.89194492117537
H          -1.76707663695578    2.77363066777892   -1.11510573024073
O           0.63817461686116    0.13522767900738    2.62216764722485
H           1.38173143205630   -0.45825682518490    2.46764195506546
O           0.39037071173306    0.20020470673400   -2.44088381568529
H          -0.17476133930592    0.91917908925616   -2.12824951914653
H           1.87966226771686    0.27763070355502   -1.59356448649948
H           0.03230263856151   -0.61521452072672   -2.04037002744677
O          -2.58802192756891   -0.08296566224630   -0.43249898506136
H          -2.19133280875511   -0.70473744915201   -1.06219211533273
H          -2.24516077835516   -0.42435355303917    0.41763071273433
H          -1.76946556998061    1.26628949207085   -0.68918636003510
N           1.04506701891304    1.88910772493630    0.68675029041253
H           0.83754255439881    1.27596542069199    1.53193365090964
H           1.71954779734409    1.30604624177398    0.05702632278437
H           0.17295781561757    2.05333736468303    0.14807561330284
H           1.46722542454062    2.76669309746178    0.96826313851997
