    26
        -50.45156595  Gyration_radius:  2.44928964203 Dipole_moment: 6.104
 S           1.35632220036856   -1.23861780047214   -0.39177389183251
O           1.15750509000573   -0.06069385745956   -1.19970410110870
O           2.39174503652356   -1.14168964039286    0.57930100672286
O           0.00054567413424   -1.59904075896315    0.29622096521883
O           1.54674732802864   -2.46486958585648   -1.27835852330214
H           0.65033731775052   -2.61538636453958   -1.73585059846390
H          -0.30633649312679   -0.94341106259005    0.99116961503753
O          -1.08299393413338    0.01110566566653    1.99302474033273
H          -1.85089457423497   -0.46477647597996    2.31622016215497
O           0.58088956304288    2.43970029412079   -0.24113673552803
H           0.91861908692023    1.74657268591046   -0.82707202558649
O          -0.82705976926629   -2.71770439674732   -2.16920800642447
H          -1.27495951267193   -3.07956594857784   -1.40054044338739
O          -1.36412948239476   -0.12485547866705   -2.07440903989627
H          -1.80148026578198    0.40822222674592   -1.39564439863361
H          -0.41285928120438    0.02713903807065   -1.93048605267472
H          -1.14137575171975   -1.78396856986317   -2.25258432986651
O          -1.84794183524395    1.65354941970505    0.08452011803969
H          -0.91807271590005    2.01693587928554   -0.09008565382204
H          -1.41621557934753    0.67468829596570    1.33484922217658
H          -2.41006682136000    2.42132200360406    0.19685651108651
N           1.66998036907417    1.33889441105873    1.95690054630669
H           2.10056178857262    0.53471156040821    1.50482934002958
H           2.36123617958437    1.75289561244611    2.56972279531695
H           1.00294012730118    2.22546477366115    0.62870143289696
H           0.91695624509959    0.98337807348396    2.53453734519660
