    26
        -50.45156597  Gyration_radius:  2.44931049377 Dipole_moment: 6.103
 S          -0.12293879208911   -1.87371455754687    0.03535143161606
O           0.73182396961898   -1.19371428496734   -0.90629620402025
O           0.52990122436707   -2.37702674156861    1.19504672077490
O          -1.27812224667362   -0.90347569470391    0.44230620793330
O          -0.92044870731310   -2.96851279511658   -0.66562711511853
H          -1.56082964641050   -2.48466646918865   -1.29114090518327
H          -0.99025816227169   -0.11133454308224    0.98691792661378
O          -2.52049936536559   -1.52430736710520   -2.02456549782171
H          -3.12528501239821   -1.22600320622289   -1.34072039123697
O           2.29374922802596    0.98508862247912   -0.34296378888134
H           1.98897208609387    0.17190860533723   -0.77148956885875
O          -0.77259232210168    1.29054651873566    1.69798227761455
H          -1.63710653397568    1.65978729365008    1.88999199766590
O          -0.81084508698059    0.48106462038787   -2.30039335510890
H          -0.11710511956806   -0.11611776268810   -1.96753604414327
H          -1.97192150395918   -0.73748399190171   -2.26449702492997
H          -0.69862630949058    1.29427664745518   -1.78830622455546
O           0.16727539945628    2.42819969637457   -0.48105106040200
H           0.42176398626152    3.34779269115422   -0.56855749874574
H           1.03347276864319    1.90201889376922   -0.48268669152132
H          -0.41432123576946    1.79456882532489    0.92202899314925
N           1.96204396106228   -0.00292658498078    2.13554658615244
H           1.18642847615060    0.48686493257576    2.56635975524402
H           2.33147295733685    0.73529223047069    0.61453629428752
H           2.67546540268473   -0.13486500175125    2.84151371599700
H           1.61853058467950   -0.92326055693179    1.86824945347708
