    26
        -50.43998950  Gyration_radius:  2.62156778341 Dipole_moment: 4.644
 S           0.38024647239084   -1.53058645206860   -2.15896958225142
O           1.80098386085620   -1.66915403305864   -2.04948724285022
O          -0.44482130529197   -2.22496776309104   -1.23322759696559
O           0.05134848112280   -0.03837568889646   -2.18184896539091
O          -0.01202437364865   -2.00978110140625   -3.61688256428615
H           0.76270454309257   -1.87592309722582   -4.15849011605736
H          -0.97596483566644    0.13025799714483   -2.00310805346908
O          -0.53516711635400   -1.37101495063622    1.38186713369818
H          -0.76632503845967   -1.93830128680945    0.63425222582723
O          -2.33525232663834    0.44100613693658   -1.69588424082894
H          -2.55727598630551    1.30552231954735   -2.04963217612140
O           0.41749977813076    2.23924121956377    0.82581384665540
H           0.52587719579674    3.17859103188037    0.97658581279595
O           1.74607991495972   -0.31180540063378    0.31169754896843
H           1.93949662890967   -0.80235809483530   -0.50059207378351
H           1.42832243991328    0.56077991705694    0.04763841132697
H           0.35131943246457   -1.03483032335724    1.14398415207081
O          -1.92455363603995    0.83103616186903    0.79088076444295
H          -1.54650257948467   -0.02214509244123    1.10942844792806
H          -1.15954997061771    1.43604162543873    0.76099433962866
H          -2.27512808899479    0.55659353960830   -0.68254216009529
N           1.04953642329643    0.81050058436902    3.01526447404069
H           0.67568704094863    1.78227303452308    1.67108459171216
H           0.25732489128842    0.18827730907250    3.13149362569819
H           1.79248577664653    0.26181679620176    2.59573920608403
H           1.35365239766052    1.10730563124939    3.93394018125855
