    26
        -50.43998957  Gyration_radius:  2.62195266723 Dipole_moment: 4.643
 S          -2.43243737684917   -0.78640780451186   -0.78590977660326
O          -2.44021411571773   -0.14086116552566   -2.06373158818714
O          -1.60672903917513   -1.92889150468700   -0.60529487997432
O          -2.14952331218109    0.27419599516224    0.27722617935513
O          -3.92757245052766   -1.21253411377668   -0.48280677089297
H          -4.48128208666353   -0.60777231425437   -0.97179118723979
H          -1.87731331437709   -0.16764878602629    1.19769388936629
O          -1.43149193259441   -0.68716396039056    2.44987833917643
H          -1.59689315568958   -0.04376526497908    3.14305165460944
O           1.21637169019144    1.97607158671593    0.70260939535898
H           1.54351552984699    2.78936140087673    1.08786303697351
O           1.12370592841384   -1.60263958451226   -0.49081185957571
H           0.29758419023321   -2.10413457594019   -0.47921947084286
O           0.13467857319995    0.65536068659007   -1.67142400470533
H           0.06248460336971    1.23881998291984   -0.90571967300865
H           0.89904186405211   -0.81004657974977   -1.01690619733817
H          -0.76685844742815    0.45695560200757   -1.96436280141241
O           1.05357380559925   -0.46268577395416    1.92284017457022
H          -0.42052543293394   -0.69014659482857    2.30161606566114
H           1.17813005356692   -1.00392159653270    1.10810435633021
H           1.09421266992429    0.45957508620007    1.60616324686799
N           3.04300467266592    0.85775029526514   -0.92483599246804
H           2.48235762445274    0.86778473093343   -1.77025080992208
H           3.08178654006376   -0.10614002335331   -0.61209791067352
H           3.98257045105953    1.14917360513767   -1.16334931299391
H           1.93782244750675    1.62971067121452    0.11146590752685
