    26
        -50.43578459  Gyration_radius:  2.8152783285 Dipole_moment: 6.328
 S          -0.72828410167940   -3.21512545497533   -0.58486076564255
O           0.03776100538367   -3.18645618477802   -1.91320669331271
O          -1.15286290830238   -4.53426024901550   -0.29205963671985
O           0.38397544542985   -2.80757389800196    0.47377911214715
O          -1.68113876536864   -2.14528733919889   -0.54442963789152
H          -0.94531794820726   -0.78995238308985   -1.73172544836126
H           0.93822705249319   -3.56873427210662    0.62797475221580
O          -0.12157961657772   -0.70338093827699   -2.23520178548732
H           0.07384617776053   -2.19695764072481   -2.19864266201923
O          -0.97318481269378    0.01687126526940    0.98496376534625
H          -1.33381442483891   -0.81948475552814    0.65594629598889
O           1.19539394613094    2.80998956446145    0.03173507061600
H           1.62054448677865    3.66761538085055    0.02210353478118
O           1.44301296833589    0.05013267993557   -0.28237356424507
H           0.56996681676704   -0.39756928733129   -1.57905165375367
H           1.58480993188423    1.00902065356762   -0.29087405394619
H           0.73832856063789   -0.09628615856308    0.38005906593065
O          -1.16416555902195    1.84755983343015   -1.04478706707082
H          -0.94104042154298    1.41946072906840   -1.87669647239741
H          -1.24930179015247    0.69527749352247    0.33444517493089
H          -0.36418821990180    2.32402313129528   -0.76166603629757
N           0.40004941268548    2.12213178078377    2.49334761165954
H           1.10920117892703    1.81064679271672    3.14533219992487
H          -0.14920658031284    1.30771241221809    2.22623932851623
H          -0.21804062090216    2.75612580192521    2.98412303002818
H           0.92700879629046    2.62450106257714    0.97552651506738
