    26
        -50.43578469  Gyration_radius:  2.81574002055 Dipole_moment: 6.326
 S          -1.45469745206079    1.07976232953418   -2.81629618859526
O          -1.50141738894028   -0.34462023741028   -3.38262229008231
O          -2.14462206612786    1.97143630416408   -3.67365232453811
O          -2.28338133458220    0.95163828809367   -1.46690802849546
O          -0.12137424226213    1.39822927629596   -2.39808252951681
H           0.68709538913081   -0.32356858622547   -1.98490859479113
H          -3.21082123894029    0.93617073494652   -1.69043528398091
O           1.05918889189998   -1.64006443712200    2.34895535122386
H           1.35292710271100   -2.19185006468800    3.07399945438734
O           0.36331990811423   -1.23686823798112   -1.96123963756739
H          -0.77188947442142   -0.87337900666422   -2.88220447523727
O           0.32868216350702    1.30944578606252    0.30433751212510
H           0.12387011888390    1.58086385311696   -0.60244791182464
O           2.35495619302208   -0.53055963894339    0.17145685733806
H           2.04205645500307   -1.00973591974499    0.95868964774530
H           2.20185014290819   -1.11517852347114   -0.57680614412273
H           1.18251356090045    0.83251645378855    0.24841578618914
O          -0.83524163982133   -1.15771337533963    0.35967327631189
H          -0.11499706686493   -1.33568389724192   -1.08733146912297
H          -0.29020595005525   -1.55606444197713    1.05523973154783
H          -0.68470609156778   -0.19449634369241    0.43959671163082
N           0.30813135389293    0.78787711008908    3.18900485446164
H           0.22086599784059    1.21862173136499    2.27077866271606
H           0.79827547568703   -0.75764835640642    2.73696106260396
H           0.97933462202559    1.33242763902466    3.71602438310974
H          -0.58971342991574    0.86844156045796    3.64980160653748
