    26
        -50.43578467  Gyration_radius:  2.81598089214 Dipole_moment: 6.327
 S          -2.12712938889645   -0.64227947430749   -2.50583946775860
O          -1.89150856683091    0.74669220133784   -3.11218369659285
O          -2.93572974612466   -1.42258802121930   -3.36799818078308
O          -0.66924705332854   -1.27343671690179   -2.49050459285239
O          -2.48793617311025   -0.52028688111729   -1.12418872586630
H          -1.68893890401317    1.16201274971219   -0.55681643261161
H          -0.46125361687678   -1.55718946635445   -3.37740375568368
O          -0.50511605734791   -1.09676275661749    0.67885150888698
H          -1.26130793532283   -1.13348999275367    0.07497112856552
O          -1.11345595674059    1.81693208202152   -0.98031611179184
H          -1.54710578513854    1.33811711515772   -2.34200110564796
O           2.18078586987887    1.11535126088838    1.82548716812530
H           2.89404703663413    1.48501261045627    2.34598496141661
O           1.16100006761508    0.55885344027478   -0.70953713734790
H           0.71374665040625   -0.23930519276957   -0.36349899448230
H          -0.18617086401904    1.44354326657525   -0.92498073968282
H           1.67112497088710    0.90544428895687    0.03837401174281
O          -0.57480924065857    1.33830473848763    1.93369743054877
H          -0.82824099745724    2.01295869472217    1.29672817236429
H          -0.67339025295990   -0.32882301156826    1.26325253774280
H           0.39410926901689    1.38720948437632    2.00984057586339
N           2.01614387705796   -1.54149244343730    2.10775545068233
H           2.18096690295259    0.12931812852296    1.98314940077255
H           1.90710528226457   -1.91136225216331    3.04379754314086
H           1.12778676534235   -1.66554732906158    1.62636392251656
H           2.70452385683222   -2.10718651321280    1.62701515872321
