    26
        -50.43578469  Gyration_radius:  2.81615117319 Dipole_moment: 6.324
 S          -1.64914941491049   -2.55524310249391   -1.40388031247548
O          -0.93560319482694   -2.32875279992324   -2.74235537585982
O          -2.43634591094208   -3.73133981741552   -1.46075048555778
O          -0.44513257545619   -2.81486116034732   -0.40037052927805
O          -2.24487951197175   -1.33236385515832   -0.95225537091259
H          -1.16979674056035    0.06784981506451   -1.77117026138879
H          -0.14057934095556   -3.70965926125072   -0.53032826278270
O          -0.90365621901472   -0.02290763224896    1.04833838358390
H          -1.49976852104222   -0.58665633050012    0.53388823402104
O          -0.36771732155336    0.07736374982764   -2.31529961228859
H          -0.61722024168905   -1.34860429110265   -2.73230639843649
O           1.96560979648527    2.22822952547904    0.70811749151194
H           2.61782116679416    2.90236852206882    0.89951724361386
O           1.38958486831814   -0.26083282127544   -0.41068361316602
H           0.68691393121875   -0.40533033448196    0.25433169360923
H           0.39676727834095   -0.03357404787405   -1.67844738481488
H           1.80592797851953    0.57742618609835   -0.15870080605540
O          -0.59419474744033    2.32166630796830   -0.33531287727061
H           0.31620172903726    2.45081762194253   -0.01639513871655
H          -0.52410744579737    2.12633352714884   -1.27448200280617
H          -0.98316101664013    0.87053266338757    0.65448488754270
N           1.05533375742600    1.06402895861192    2.93988839991091
H           0.28697596661165    0.55162973366619    2.51172793623211
H           1.67478008417022    1.84278534729482    1.58223527768072
H           0.65941800388942    1.66108956466635    3.65516956051145
H           1.65597766198510    0.38800392087931    3.39503934358424
