    26
        -50.43782371  Gyration_radius:  2.75389029017 Dipole_moment: 6.968
 S          -0.25527722507344   -1.14779210535018   -2.86340497354514
O          -1.15633279949525   -0.44424577091695   -1.99999284561237
O          -0.64740058766184   -2.40625497786526   -3.36488328332429
O           0.11888573292688   -0.19280382911812   -4.05199464805447
O           1.11548494484681   -1.29153023983004   -2.11499826054642
H           1.39044576845232   -0.34228072542924   -2.00376881244721
H           0.36764465066501    0.64377576801700   -3.63750957980978
O           0.82133827432132   -1.25348327387609    0.81583825662441
H           1.11847823344291   -1.66056983391970   -0.00297553323851
O          -1.48676728459595    1.46280570330686    1.84018810545291
H          -2.10966472260296    2.00771984351992    2.32123091381398
O           1.38493404486347    1.27123607526256   -2.11181692417694
H           2.24291803735521    1.69405515663697   -2.19397885746162
O           0.87326067346414    1.40476620754624    0.38958147355643
H          -0.00827902142869    1.64604157343989    0.71260823711568
H           0.96286558948376    0.45088567707229    0.61557224818540
H           1.09898994832036    1.42593050003376   -1.15207793900054
O          -1.79274425601553   -1.00745066652959    0.56361796923910
H          -0.17177500550062   -1.28939206255715    0.78215065749363
H          -1.89805839115289   -0.12327116617493    0.95134289041904
H          -1.75843188844170   -0.86359491775991   -0.39696995376903
N           0.02358072278739   -0.04494392783724    3.48452259802595
H           0.52663616503202   -0.57540189599573    2.77930971814043
H          -0.51505978846147   -0.70654339566805    4.02979799775146
H           0.70845830509659    0.38298414452548    4.09493340315571
H          -0.95413012075349    0.95935813927648    2.51367715196592
