    26
        -50.45791859  Gyration_radius:  2.56514908392 Dipole_moment: 4.564
 S          -2.38327741354103   -0.14477071154551   -0.41193952248621
O          -1.71624369787723   -1.15195962957110   -1.21087513614968
O          -1.68656249645767    0.11322451417262    0.83953232713233
O          -2.70326898818960    1.05643593774733   -1.15723616715507
O          -3.78730893467572   -0.77140345685144    0.03020639366685
H          -4.31779916943229   -0.71204762834060   -0.75903667284502
H          -1.15288773671922    1.37712108387050   -1.24370902059168
O          -0.19650831226782    1.60033749444373   -1.37365779983159
H          -0.14955662837605    2.01322463087515   -2.23960117677549
O           2.35533617338344    0.37849946888957    1.55152132268162
H           2.96244320328770    0.59288175279395    2.26063555947109
O           0.52599254024297   -2.51565782815298   -0.89092360605811
H          -0.35383969964224   -2.17485978082731   -1.15970377922010
O           1.01530604438497    2.55061504822666    0.86508494599443
H           1.47657995304383    3.29005109483562    0.46467651488667
H           0.40954714172253    2.20568675459380    0.17989865948354
H           1.84574874413497    1.20492941230564    1.35778391627215
O           1.90401813609108   -0.23342779097435   -1.25466433219184
H           2.27615259893385   -0.05800182380052   -0.38257762996153
H           1.15419585568339   -1.84850254719951   -1.24007507917270
H           1.13325700280469    0.35306035824622   -1.34037043429624
N           0.28901832830086   -1.43934092245883    1.45319009994817
H          -0.55310937150547   -0.80808245534768    1.25041926452966
H           0.43833573454399   -2.01340393519374    0.54460517057745
H           1.11191594692715   -0.83209831344359    1.61383606113965
H           0.10251503519508   -2.03251071730367    2.25298012094843
