    26
        -50.44619983  Gyration_radius:  2.55321024101 Dipole_moment: 7.614
 S           1.31134197396535   -0.66174348310445    1.92137620922524
O           1.78264964892030   -1.02365938890827    0.60349627148296
O           2.28114822941138   -0.56295984397281    2.94585158672428
O           0.51568117477049    0.67629623356172    1.76273645728913
O           0.19835301701194   -1.63197769869621    2.35900585798007
H          -0.43011759249255   -1.88318780636187    1.60787762358596
H           1.16958259186617    1.24139572959882    1.22609640263912
O           2.29360157897101    1.67222370274982    0.28079716419920
H           2.65304901982693    0.78926114983809    0.13032413585261
O          -1.37805417128802   -2.37699950118457    0.46478553171514
H          -1.39903032969403   -3.33439673645377    0.51926730980570
O          -1.10166697835814    0.71508386165933   -1.97678484075458
H          -1.80891207188932    0.62274308769008   -2.61623787801094
O           1.06023471548881    2.36228721064402   -1.98826190296306
H           0.29865313784259    1.75512437289935   -2.05098213167850
H           0.70665815103327    3.25311306699328   -1.98835103102625
H           1.91614655797313    1.96506733242589   -0.58291114161967
O           0.18745389955222   -1.66717086449426   -1.45100563640438
H           0.92061570842555   -1.46586322144096   -0.83861467178092
H          -0.82675984515554   -2.15310866503747   -0.35138286625965
H          -0.14445616670588   -0.80784523458010   -1.76818228115025
N          -2.12033011232882    0.51812056166287    0.44824062010507
H          -2.91513897239930    1.04414935799790    0.78870462959467
H          -1.52459448336789    0.69253260426163   -1.06338078374010
H          -1.32553625706351    0.73061770750889    1.04608998465459
H          -2.32057242429348   -0.46910351525638    0.57144537056979
