    26
        -50.46213380  Gyration_radius:  2.46931166788 Dipole_moment: 7.593
 S          -1.49960153306222   -1.65567627568987    0.32217983401372
O          -0.59843490118122   -2.66867315210647    0.81483249238784
O          -1.51406676818151   -0.49914807411820    1.23150364278735
O          -1.23171900292672   -1.25965669704917   -1.04648722923712
O          -2.96334678015729   -2.25574898182185    0.33308284333382
H          -3.02801474119023   -2.72514697258310    1.16012810020484
H           0.38490297772385   -1.47610810235190   -1.08615639720773
O           1.34564333831996   -1.59491550061318   -0.88034602359066
H           1.44450887474947   -2.54215656706604   -0.75526959386272
O          -0.96995840146580    1.26437879236807   -2.11414447515607
H          -1.20382896463142    0.34204092901092   -1.92732160882545
O           1.51211133269779    2.12699513302239    0.73237066552823
H           2.14440116325439    2.83815767709667    0.83678638067534
O           1.61479612882847    1.18322920469131   -1.66175688923182
H           1.57304947831957    1.83298383689779   -0.23265753929809
H           1.76654714461525    0.23243457706780   -1.63523209725024
H           0.67313098097750    1.28702381314551   -1.97027432524124
O          -1.36604063708353    2.13122735023507    0.42959994120716
H          -1.25906192454148    1.75823488101407   -1.32076119600324
H          -1.57476743382480    1.24438092261273    0.76560806164027
H          -0.44549339985271    2.30259776053383    0.66744803150665
N           1.06326291120437   -0.37247863066122    1.49293701070178
H           1.46613873231691   -0.80573907950417    2.31666109647786
H           1.31413608979564   -0.90744885437098    0.61835908205273
H          -0.00314950687855   -0.40976241164077    1.53315034625020
H           1.35485486217249    0.62897443188346    1.37575984611426
