    26
        -50.44527831  Gyration_radius:  2.56833172691 Dipole_moment: 9.813
 S           1.50366659819611    1.32884805309317    1.73534355305802
O           1.30725986293360    2.17540372785809    0.58133314444116
O           1.77793643396467    1.96237722290111    2.97704002430533
O           0.34622448801443    0.36121235983781    1.84076993034670
O           2.71764735739636    0.36396941826435    1.36882530660661
H           2.64700256639257    0.30135242967102    0.39841694836284
H          -0.76895515581126    1.16518795971192    0.97745701971016
O          -1.62230098024502   -1.97150177642035   -0.94809803470447
H          -2.11406189345449   -2.77859334018002   -1.10456711954797
O          -1.30340166067021    1.66695567667823    0.31433717482416
H          -0.80595043974503    2.48850302619981    0.22965114031162
O           2.25455078756959   -0.05119065432841   -1.25948723923914
H           2.84365137968651    0.57903689536767   -1.67636769385976
O          -0.26653982994836    0.40288581989343   -1.85869271343671
H          -0.73704864729357   -0.43771724394879   -1.82187502289204
H          -0.62494523183996    0.94807789586576   -1.12616733986836
H           1.33770381637557    0.23307830377863   -1.52323626149273
O          -3.29859060514767   -0.09529511879707   -0.14105876670618
H          -3.86341123424563    0.31650846795515   -0.79770152510260
H          -2.27444657267416   -1.31335122312865   -0.59423861897983
H          -2.68913115486071    0.60284423523776    0.16391406083221
N           0.73210643610583   -1.68620866149412    0.43964874771478
H          -0.15302391639917   -1.90090669915195   -0.05895700590330
H           1.04334676330118   -2.46848324969959    1.00431278463658
H           1.45752940537549   -1.41104312459103   -0.22944913666403
H           0.55318140713815   -0.78195039043589    1.10884667327953
