    26
        -50.45332210  Gyration_radius:  2.73114310034 Dipole_moment: 4.606
 S          -1.69072051090628   -1.56184529602736    1.68123162047712
O          -1.99578041940877   -0.13981076965629    1.86209730994411
O          -1.22747015339794   -1.83102105133529    0.32359339798050
O          -0.80226814246635   -2.06694829590185    2.69841082079607
O          -3.06909996334914   -2.34010220419484    1.83158510456469
H          -3.19752513533317   -2.39116369019193    2.77474920438509
H           1.18719399443962   -1.85579835602022    1.95978271345207
O          -0.60153501054481   -0.18356456275289   -1.69294293951466
H          -1.01517615028612   -0.88821168333250   -1.15736798984270
O           1.29080353468387   -1.55446992012353    1.04895149542473
H           0.45181353246274   -1.85779032021803    0.63746174425669
O           1.94170354646289    2.23999096875275   -0.81865938139222
H           2.67087990809249    2.73229003940050   -1.19757335722714
O           2.05183424313347   -0.50312504584583   -1.49123607909974
H           2.19600566494357    0.41988246875469   -1.22388940223648
H           2.12752762853487   -1.03624388251037   -0.69110008555675
H           0.31965983776705   -0.48213688581885   -1.86286841068617
O          -0.35705585709111    2.47625798400156   -2.26068320115554
H           1.16805481015194    2.42272192848573   -1.38720459591291
H          -0.57059064049559    1.52851192137748   -2.30504076236693
H          -1.19130244205833    2.94125881664373   -2.18637647458424
N           0.07488234928824    0.82711126132334    0.70522823274829
H          -0.80687646758735    0.61715874925855    1.27676534994932
H          -0.19208698506672    0.65407999521897   -0.29907790731961
H           0.47535076182384    1.75401419841566    0.82262251957649
H           0.76177806607653    0.07895362243700    0.95154107335781
