    26
        -50.45267957  Gyration_radius:  2.74522013987 Dipole_moment: 5.921
 S          -1.59740120935879   -0.58236514580518    2.43485416301451
O          -0.16221108299617   -0.57362275897341    2.72650631903758
O          -2.38056721647349   -1.42053605772024    3.28086903639007
O          -2.08399630937215    0.93567250741094    2.74934260256455
O          -1.82556642457324   -0.71678742200849    0.99746936703361
H          -1.71497817776077    0.80267117921231    0.39665230155185
H          -2.44635680165183    0.82447650511508    3.62187893147659
O          -0.28063332785964   -1.51176796476182   -1.05117387379389
H          -0.98988064755465   -1.49257505823304   -0.38277007276619
O          -1.40850723745697    1.70218029533658    0.11907020530266
H          -1.79607475453430    2.29764217162783    0.76321234702677
O           2.27369566965990    0.93449823398149   -1.78498442336293
H           2.77927726779188    1.27937363099860   -2.52194011822974
O           2.37398829179185   -1.78913213389429   -1.62078150959559
H           2.80162218244980   -2.51334879801768   -1.16252384048661
H           1.41589784285020   -1.93495300726432   -1.53994919666937
H           2.41072222224247   -0.03172230920965   -1.79286902277859
O          -0.47734016382869    0.79214984825739   -2.38829556708894
H          -0.52417619858485   -0.82497494889958   -1.71365255035408
H          -0.96839219115947    1.30367652382068   -1.73246877329593
H           0.46133259241062    1.00700939150494   -2.25666294405536
N           0.86737960014401    0.31585514298245    0.57343082982675
H           1.84104088567893    0.59059875687475    0.48580015749829
H           0.57235570472623   -0.04882161197988    1.54779546548275
H           0.23091700737161    1.10631206418262    0.35524402402628
H           0.62785249604352   -0.45150903452565   -0.10405385776381
