    26
        -50.44415777  Gyration_radius:  2.4764703763 Dipole_moment: 5.577
 S          -1.94001938499719    1.30780832236831    0.04282012669743
O          -2.17777005850393    0.39717521264513    1.13962140464541
O          -2.92969027859445    2.27465861428755   -0.25064318563614
O          -0.56319749620352    2.00140243547955    0.29991454009211
O          -1.61038081380117    0.46436125259958   -1.21548079516626
H          -1.75500068408609   -0.52655624327414   -0.93984553689271
H          -0.34729140681892    1.83694148834549    1.28644182930676
O           1.94497323331793    1.00518191336983   -0.44283275465377
H           1.19485337605559    1.60536227522278   -0.32586934323786
O          -0.17429974197776    1.24332041757116    2.67614014110507
H          -1.01215879436667    0.76258211664848    2.58769923949318
O          -1.88193029887954   -1.84663884089263   -0.29776517771824
H          -2.19382553639874   -1.47168852638174    0.53855070572730
O           0.73716140780172   -2.15475400689786   -0.02466115696224
H           1.08184619450021   -1.67585062496125    0.74808943962188
H          -0.94194178035828   -2.12121325804026   -0.15452368095554
H           1.06291575272107   -1.68363559681430   -0.80024622311366
O           1.80814336566131   -0.37557132356260    1.78132082432546
H           1.95779419726895    0.18421704638082    0.97099678867345
H           2.64807528661820   -0.42385605646695    2.23997221158936
H           0.54183675626965    0.59038870104480    2.53165013482558
N           0.87848330132669   -0.45998681785296   -2.56356917044960
H          -0.03752460643425   -0.06188997206317   -2.36364609706204
H           1.71821522256037    0.45237074022042   -1.21531010354007
H           0.71880663246972   -1.39732264522984   -2.91735309166649
H           1.27192617438614    0.07319338706928   -3.33147105951109
