    26
        -50.43982538  Gyration_radius:  2.40979320526 Dipole_moment: 9.263
 S           1.75041945170694   -0.04397565786939    0.79299639205918
O           0.49860575705265    0.49424928229960    1.32936027197043
O           2.72060906929413   -0.40635621318539    1.76616289271166
O           1.42523356510624   -1.12805562116275   -0.16286383150971
O           2.32908813297904    1.13088887211377   -0.10471979078524
H           1.50934392079876    1.48451843583129   -0.46669356083704
H           0.02326687766811   -1.60683316461813    0.05292158783542
O          -1.91034389364823    1.23850478469744    2.09066375042406
H          -0.97391926915614    1.49681383911951    2.04133825669280
O          -0.05246898508492    1.64139768201544   -1.47748691872479
H          -0.22631481307584    2.41783964992628   -2.01232018476936
O          -0.95592154242333   -1.88674827939669    0.09695141752663
H          -1.07114562180563   -2.55640922678423   -0.57908638201944
O          -1.98434831221694    0.41171825638010   -0.24508835576771
H          -2.03623510910730    0.81279370794196    0.77914539793869
H          -1.24292033331651    0.92557588861730   -0.69438769398168
H          -1.61781267221716   -0.54457351458998   -0.11727499121709
O          -1.02078169664941   -1.11646126990313    2.84273821432759
H          -0.22748292967110   -0.66534275387515    2.49358489861192
H          -1.85601005070877    0.37244470174858    2.57155783787157
H          -1.21878357117590   -1.79430081976544    2.18846694350050
N           1.25511959562507   -0.19894868081423   -2.74877647753649
H           1.44375769974602   -0.67810188384638   -1.85788049444541
H           0.39533141303010    0.94816732095906   -2.07607038540076
H           2.14596080046799    0.13196138860006   -3.09747366997876
H           0.89775252678851   -0.88076673443348   -3.40576513448997
