    26
        -50.44464999  Gyration_radius:  2.55266127474 Dipole_moment: 6.274
 S          -0.88750913785811    1.32949906869707    1.36077812032812
O          -1.21832395647399    1.05691797833788   -0.01259516508518
O          -1.97360179763436    1.64347727249180    2.21972926923222
O          -0.10727179217813    0.09660274188783    1.92341085807352
O           0.19038307526984    2.42593598248712    1.40523688930943
H           0.84259362591537    2.26705747405588    0.65782207491341
H          -0.85463896173407   -0.57602654532236    2.07648314163722
O          -2.20721870713966   -1.28786129548532    2.04117328773753
H          -2.80319874788016   -0.53283332946188    2.06630826477908
O          -0.25292999681771   -0.91669371523884   -1.44374717197529
H          -0.68987393456765   -0.17261148118178   -0.97541142113600
O           1.87414173404060    2.12971532863093   -0.54546808739540
H           2.07676153908904    3.03988804768975   -0.77245228391757
O           1.08188389125601    0.97838966582147   -2.79956036164890
H           0.47190089815190    0.27860525222428   -2.47381255536921
H           1.50222101658969    1.72274867216564   -1.37182431448002
H           1.77127351027236    0.52601400935933   -3.28891807918083
O          -2.19745230791335   -2.44899692958458   -0.35424184397547
H          -1.89881380315258   -3.35977467683796   -0.35839339901546
H          -2.30843692416072   -1.72080147076022    1.15661724462371
H          -1.54241922783142   -1.93487549698948   -0.87543964166612
N           1.97379203691411   -0.94650129767436    0.11393407803600
H           0.56555144827976   -1.08788744020267   -0.91909570525543
H           2.47504785788396   -0.09647542109882   -0.11846624241661
H           1.45883638301246   -0.74943332361351    0.96739318016522
H           2.65730226870625   -1.66407908044259    0.32053984373311
