    26
        -50.46573350  Gyration_radius:  2.53476754405 Dipole_moment: 4.203
 S          -1.41412032498275   -0.78472358636979    1.26369852261768
O          -0.97765391964112    0.26248036586377    2.17346645309256
O          -1.83307333395431   -0.28783123753354   -0.02948865947141
O          -0.43389840797877   -1.86316308516707    1.16733042698795
O          -2.71372250406009   -1.42525943379164    1.91271449735801
H          -2.44203268585937   -1.67786589199319    2.78994858431670
H           1.11540440237500   -1.10521502862822    1.52981569467042
O           0.22841900817729    2.71155033481653   -1.09956217114643
H          -0.20626526220896    2.64708987575916   -1.95182522741636
O           1.55351923063200   -0.25718553796329    1.73728710918772
H           0.80727165791768    0.23183608757094    2.13212304316649
O           1.57787771628235   -1.19019629248249   -2.35327962936582
H           2.17463698762103   -1.93676348165352   -2.42224175291716
O          -0.64467962285777   -2.21842875391818   -1.44293611806133
H          -0.45714704502988   -2.36337906322829   -0.49565941615891
H          -1.30994612620417   -1.51593462210210   -1.40088063705186
H           0.69747678375557   -1.57674863420602   -2.08254253481193
O          -1.75766919943048    2.27649247509459    0.54606097318412
H          -0.50474617462430    2.64882975999817   -0.42635812992380
H          -1.98872390110535    1.40212574100621    0.17369450496369
H          -1.46041475014453    2.04217682778391    1.43503014660977
N           2.01066977550623    0.80071581485853   -0.63464553099478
H           1.29865251915703    1.56413295700836   -0.81851075511552
H           2.94642544217400    1.18593495382282   -0.70968716372575
H           1.85762074320814    0.40320940597507    0.34410604603978
H           1.87611898122175    0.02612004943529   -1.33765826588722
