    26
        -50.45592207  Gyration_radius:  2.66346472069 Dipole_moment: 5.319
 S           2.25332759093826    0.38361969491925   -1.49043849930107
O           2.34990630030752    1.82226689061273   -1.43621139457761
O           2.69832460812082   -0.24389537070094   -0.24194618225227
O           0.92876029779563   -0.09162147995731   -1.86790589472908
O           3.24659221991704   -0.10817862287993   -2.62660657009690
H           3.96378245782402    0.51806734562160   -2.58215528787766
H           0.03327658088754    1.15808895128202   -1.25006410835897
O          -0.54901836440140   -1.98393542932329    1.39625108334552
H           0.01197671377502   -2.75700931525716    1.46702142406391
O          -0.24685623177462    1.88752854185627   -0.64837063522288
H           0.42658635199998    2.55795629930846   -0.81451346094405
O          -2.67849970427040    0.50123034409747   -0.39159179726943
H          -2.07699655778048    1.22271564960816   -0.61025531721279
O          -2.33992148706286   -0.09480779937153    2.31043324563042
H          -2.64570670285931    0.41739691657806    0.57674911786376
H          -3.17942601825750   -0.37646123430588    2.67658624827490
H          -1.83174302786737   -0.90070255513831    2.12785944354163
O          -1.15871933920156   -1.63108378800297   -1.05695143982269
H          -1.83443765531924   -0.92119690555784   -0.98100766135041
H          -0.38600369557893   -1.21110666326290   -1.47474174194619
H          -0.81790632742848   -1.92548549400078    0.41461005659863
N           0.76052989130469    0.36641748080884    1.32991165207032
H           0.98444728856554    0.79205734313814    2.22294323284956
H           0.22163621456275    1.03054422512659    0.72008075992093
H           1.64709501099030    0.11194446836435    0.76828778501877
H           0.21899358491308   -0.52434949357380    1.46202594184145
