    26
        -50.45592014  Gyration_radius:  2.66354586301 Dipole_moment: 5.267
 S          -2.10103718468036    0.52836455824155   -1.65889169339829
O          -3.20053561397039    0.28620810543211   -0.75599025768473
O          -1.45336391452413    1.81866854240431   -1.40345148764036
O          -1.12112936560771   -0.55015531948157   -1.67497245298592
O          -2.71122513701362    0.60432542252298   -3.12226300062598
H          -3.58787600358790    0.95004048573548   -2.97989378518088
H          -1.31110537287888   -1.08007177975193   -0.11755800170403
O           2.26967481902984    1.01417215709912   -0.09759137382446
H           2.53807837730220    1.64850645025112   -0.76316421418111
O           1.03656738139130   -2.28382498270485    1.13307439826162
H           0.08064601441887   -2.17457597130753    1.19931809912119
O          -1.47829051012106   -1.05893452458049    0.85426582827890
H          -2.41945851012626   -0.85080843625858    0.89371802006598
O           2.22979425134999   -0.11744489639434    2.41859879851603
H           1.41915518845924   -1.60188452491445    1.71130927855770
H           3.05046177240110   -0.40548887079037    2.82078702788780
H           2.46714676801497    0.32013057999421    1.58603970392687
O           1.50280256531495   -1.12377881166205   -1.26173758064241
H           0.60120139067694   -0.95214215605720   -1.58689726468659
H           2.03838161813592    0.16088293264442   -0.60535037775766
H           1.39447243692657   -1.72668657784715   -0.49290287387892
N          -0.24352397589009    1.33129572687633    0.80971148756731
H          -0.37589424617854    1.97703016545309    1.58062033922571
H           0.77319591105499    1.24911122127023    0.55663702060197
H          -0.63706768981540    0.38455466723326    1.03836642144139
H          -0.76107095006667    1.65250582663149   -0.08178206923501
