    26
        -50.46607501  Gyration_radius:  2.43502122197 Dipole_moment: 6.137
 S          -1.36945654034734   -1.03672744738868   -1.56832664043469
O          -1.21719534833446   -1.73659862441900   -0.29221217759716
O          -2.49111895516642   -0.15467413192545   -1.62379774076919
O          -0.10694582698249   -0.37631444407905   -1.92556545625726
O          -1.57879716587522   -2.16861454380492   -2.65832447795066
H          -0.81822914012757   -2.73204989108778   -2.55143814229809
H          -0.52194114094531    1.04548739183693   -1.30267886844242
O           1.11609777817048   -1.95682746658589    0.96220977437313
H           0.24976386297301   -2.03171331964304    0.50348341302630
O          -0.78245912876924    1.87223528918953   -0.82484682672457
H          -1.54187296084756    2.19675972616218   -1.31433304446847
O           1.52972597088915    2.09945638180700    0.55505442569387
H           1.93319402552709    2.96183643923076    0.44879699329426
O           2.30519006342740   -0.35122752389948   -0.78469980307842
H           1.71838617846898   -1.53925541002117    0.30179817930924
H           1.50834285419690   -0.38029886215969   -1.34966281065767
H           2.28633796153974    0.52087076045867   -0.36993293828363
O          -1.86068613444091    0.33443107475330    1.23434375974153
H          -1.85080296524627   -0.50908443548761    0.73643950645010
H           0.69964575490619    2.11384516500602    0.03822247278491
H          -1.76016776245260    1.01371216136726    0.54657758204016
N           0.52536097561755    0.17854553189878    2.28198595695639
H           1.06152062998574    0.94211148684661    1.84751303902954
H           0.84136621966384   -0.76899107006063    1.83882223296864
H           0.62459517402669    0.17807291253690    3.29009239829057
H          -0.49985438989219    0.28501282950280    1.98047919301846
