    26
        -50.44415502  Gyration_radius:  2.88630948078 Dipole_moment: 5.002
 S           1.86174603159200    2.43370638296333   -0.84371740120696
O           1.28112080200365    2.89038157059343    0.40576460691230
O           2.73177278641544    1.27402078784339   -0.67406990042581
O           0.83924409076150    2.20540280382073   -1.85777716471962
O           2.80766127036926    3.59887083869711   -1.37430542887474
H           2.28024364035432    4.39059715315678   -1.30642206327675
H          -0.45873332370388    1.75282662335517   -0.96201868027901
O          -0.40600109859232   -2.44681847987392   -1.06599726886361
H          -0.47204606489797   -2.90593867078162   -1.90338387364257
O          -0.90102229226574    1.49914076807927   -0.11116301880285
H          -0.50629067531010    2.15747744888421    0.48374730263720
O          -2.14832265588143   -0.95772570608097    2.01302797646796
H          -1.88037905968269   -0.08041307206400    2.29222902647965
O          -2.41206135367346   -0.82344888750976   -0.68260234082726
H          -2.56081900853848   -0.93763848456548    0.27741314181237
H          -2.11813196320828    0.09217503518545   -0.77347399866718
H          -1.22092526296109   -1.86901108941410   -0.99672448579113
O           0.03721102932462   -2.61122961739831    1.65041428180156
H          -0.13865263313949   -2.77071957295513    0.70515384049387
H          -1.35596176473835   -1.52346631285974    2.03515651746492
H          -0.02561722105496   -3.45906754404399    2.09210237250898
N           0.96239027984382   -0.40039348199334    0.13103974208610
H           0.14666492970082    0.27214882935884    0.15690097000100
H           1.80057686496540    0.19304471438993   -0.19964093836566
H           1.12642145399019   -0.81994382291192    1.04477345010565
H           0.72991118833165   -1.15397822386588   -0.53642667501144
