    26
        -50.46607502  Gyration_radius:  2.43505362396 Dipole_moment: 6.136
 S          -1.70778884257474   -0.67077166489900   -1.42927939169451
O          -1.03385135640547   -1.74161886865145   -0.69410989319618
O          -2.86922536275290   -0.15332560770016   -0.77917979219809
O          -0.73846452467779    0.37524328904168   -1.78149277952308
O          -2.15939473174296   -1.31182946587118   -2.80707594083127
H          -1.35155321633728   -1.65979443435931   -3.17269300762797
H          -1.06585333811681    1.29326472195041   -0.50393740922713
O           1.60149587370872   -1.81993995250830   -0.35257002866187
H           0.64365727652897   -1.93286810018800   -0.54301092549272
O          -1.23285842035120    1.77791482047128    0.34277570008176
H          -2.14815616197580    2.05945949113688    0.27532589079690
O           1.37623208210484    2.04294509815796    0.99432110016844
H           1.61426684492256    2.95229544388929    1.17920777124232
O          -1.32793681902531   -0.65157753751203    1.70574439006979
H           0.42103375668151    2.04135732546891    0.78467569503188
H          -1.55675462875928    0.24021046994242    1.39450125168016
H          -1.39830691082715   -1.20746418359358    0.90228089794246
O           1.90158054219749    0.57713357370122   -1.45122267570344
H           1.93154899890694    1.18831811179488   -0.70392873456463
H           1.87848588382758   -1.04272294353713   -0.89340518326790
H           0.96498303024989    0.56369527926261   -1.72994584642168
N           1.27535968129301   -0.57947977918985    1.88482341142460
H           1.53125539591171    0.40175789600323    1.70867179812355
H           1.52060974020653   -1.17055785767556    0.99915504945766
H           1.72482410380743   -0.93952419749960    2.71816787096791
H           0.20481106300170   -0.63212091748863    1.95220080140843
