    26
        -50.45592081  Gyration_radius:  2.66420267085 Dipole_moment: 5.275
 S           2.09613975579965   -1.09232715560556   -1.36462466920836
O           1.69782861743209   -0.79371713948399   -2.71909281794251
O           2.63280550183620    0.08597337396061   -0.67688132379402
O           1.04029965728489   -1.71659857430421   -0.57806963016334
O           3.27761718471569   -2.14877406349096   -1.45090728214433
H           3.71186795957434   -1.92996283964111   -2.27064272290913
H          -0.26561462789001   -1.02878601265151   -1.32887022685515
O          -2.65286358585378   -0.66599187741260    0.31131974468474
H          -2.31498595582791   -0.68013844623366   -0.59188271697943
O          -0.81896704456444   -0.36056322221751   -1.79801295469087
H          -0.40155063640833   -0.32510096796492   -2.66697571072551
O           0.05267808787411    0.97743118935024    2.28681377280626
H           0.83492325319935    0.99910447961970    2.83905771589175
O          -0.45572456278000   -1.44747956132436    1.67437153510421
H          -0.14576863396241   -0.00959764217677    2.12577172280570
H          -1.33556306049301   -1.35207706474690    1.24623820284797
H           0.15795618970724   -1.68555735680837    0.95692023409342
O          -2.34163949371502    1.92322710018835    1.29393573388691
H          -1.57447697374825    1.68710203099015    1.83865033370636
H          -2.66841096020074    0.27121590714637    0.57067178706371
H          -3.05951380936123    2.11470892420953    1.89906709738530
N           0.49503839647372    1.46533688887341   -0.32201506439316
H           0.27653576210699    1.38036001957166    0.70235729549926
H          -0.19037005553725    0.90335030852251   -0.88588213317420
H           0.49830708777545    2.43646152003287   -0.61474913505430
H           1.45345191653721    0.99240017156543   -0.47656878777028
