    26
        -50.45494015  Gyration_radius:  2.74427977421 Dipole_moment: 4.802
 S          -2.32232881076011   -1.55883958557847    0.75841642133939
O          -1.93855079368686   -1.69792640308626   -0.63557315921626
O          -1.26994491304670   -1.95542216115457    1.68365753140509
O          -2.83830809843378   -0.22878557984785    1.04964347136812
O          -3.51769616144078   -2.57794661866028    0.99145826536692
H          -4.07102532199555   -2.41453424431433    0.23388937746411
H          -1.83499141525022    0.97620857199428    1.13108727410004
O           0.28089994401086   -0.65713865587245   -1.52606787715102
H          -0.57551237969609   -1.11177764404778   -1.34123218311272
O           2.56985905984262    1.52241958569477    0.01507180695885
H           3.27496576842345    2.16553056837506   -0.06309931686491
O          -1.13558474955651    1.68316998207816    1.23543102090716
H          -1.46580535739925    2.27261021223122    1.91460479829604
O           2.97773538437519   -0.56283932096534   -1.66306837155260
H           2.03333628118168   -0.79815611461463   -1.73038431925153
H           3.28386595234501   -0.43594301173390   -2.56227246145600
H           2.81442610854350    0.77054697073362   -0.56544754030920
O           0.11155659685369    1.98614205643290   -1.23705152795080
H           0.06808879517734    0.29421966559827   -1.66815789336587
H          -0.51906636329066    2.06106370974747   -0.50640365151575
H           0.98783595768593    2.00681842825480   -0.81556140984929
N           0.64899908813049   -0.34689374328751    1.08083840971309
H           0.20883554882246    0.57746741776249    1.25564982994729
H          -0.02927842898296   -1.08400927817536    1.45184201616930
H           0.67835267471202   -0.49359517001503    0.02958265604036
H           1.57933563345912   -0.39238963750078    1.48314684254326
