    26
        -50.45004759  Gyration_radius:  2.53831340808 Dipole_moment: 6.005
 S          -2.27961744772007   -1.18782108353866    0.51189635054470
O          -1.29328173727546   -0.36637757005085    1.17905159285854
O          -3.40283028948786   -1.60073871472369    1.26308331106658
O          -2.75135487962258   -0.44065756296126   -0.76310318309675
O          -1.55737247547381   -2.44278382419905   -0.04720150197559
H          -0.62496611296361   -2.22012734920621   -0.32828357889057
H          -2.10387098547010    0.25910818628749   -1.06278016461336
O           0.91987180698054   -1.98974952345166   -0.66466423096309
H           1.34935286143586   -2.83990288450855   -0.77168889712682
O          -1.17312847382253    1.38965234824075   -1.69335244742212
H          -1.47811879286068    1.57371413453821   -2.58322375369753
O           2.03919940887921    1.79681445489408    0.46825038562909
H           2.48799257968189    2.64119261244210    0.41315678003772
O           1.25095495025150    0.50063198639928   -1.79696541302958
H           1.18405436773408   -0.43433404632717   -1.54466295430244
H          -0.22896051108588    1.04658596023157   -1.77878482688165
H           1.66560770478191    0.94879387853651   -1.03185982966191
O          -0.53333929962540    2.21013133447980    0.89692486117562
H          -0.84547526101931    1.33364381560189    1.18484050166725
H           1.09460585575506    1.99956754666953    0.70403848822974
H          -0.88283770584376    2.30125171698401    0.00093165927391
N           1.50252549476177   -0.88568342163339    1.58977425429985
H           1.91943791744099   -1.32141181663110    2.40129258826065
H           1.22524309645634   -1.60411902459424    0.24079696346597
H           0.53341024296561   -0.65805606123201    1.80389268924159
H           1.98289767513963   -0.00932510229389    1.40864037591724
