    26
        -50.45494018  Gyration_radius:  2.74426833242 Dipole_moment: 4.801
 S          -0.87786643113525   -0.53953242076825   -2.70860037209848
O          -1.48386689674743    0.63464996012571   -2.10533769168204
O           0.57455005885987   -0.46047997356952   -2.78022525155307
O          -1.33121937986960   -1.77028322647845   -2.07638206225893
O          -1.38915541174035   -0.57796103359920   -4.21151072369425
H          -2.32132870745266   -0.41039778708721   -4.11111442858966
H          -0.79202517922226   -2.13448663887404   -0.64738869700905
O          -0.66354008859310    1.53665852618696    0.20035446020094
H          -1.07368037462666    1.32678457129272   -0.67253777754275
O           1.57173156341915    0.15330301367542    2.53528747522193
H           1.90456007652002    0.11237083070976    3.43218850648937
O          -0.35779954515070   -2.33836941540353    0.22995619137778
H          -0.27150756903008   -3.29206170895645    0.25807101984390
O           1.19360161675168    2.72144953368667    1.76504489606982
H           0.80402364162955    3.37357642436695    2.34930004886792
H           1.52195447028608    1.10448234806890    2.30103884239112
H           0.50831878567667    2.50739899506360    1.10448949904991
O          -1.13181905767692   -0.35066854893494    2.02191756495315
H          -0.22208759091057   -0.26888476987555    2.35602193805154
H          -1.10363123788555    0.95605593107830    0.86348904737864
H          -1.12694266919162   -1.15091418288551    1.47716016731620
N           1.24992752018877   -0.22723081290578   -0.30587826529796
H           1.14843725838122   -0.31075694556058   -1.36600682743808
H           0.61221669938084    0.57318984566203   -0.02299616640965
H           0.85720285067621   -1.09879490555114    0.10030256979808
H           2.19994559745150   -0.06909758946711    0.01335602657535
