    26
        -50.44922937  Gyration_radius:  2.46951765618 Dipole_moment: 5.760
 S          -1.59339074704916   -1.40396784148265   -0.67685359033226
O          -0.35004763508910   -1.09499942414810   -1.34729606704747
O          -2.08322132255204   -2.72288335198737   -0.81244577717387
O          -1.42674839529661   -1.00826704455513    0.82350778591261
O          -2.66448372759699   -0.38778991413882   -1.12321917258917
H          -2.29247231215684    0.53881601066267   -1.06164277323358
H          -0.73613481397149   -1.62261533748797    1.28536002494452
O           0.40579704683813   -2.29477673822522    1.95976690245457
H           0.59377433653271   -1.84673199265376    2.78777028923601
O          -1.68530908231668    2.01887399531012   -1.05182850203374
H          -2.15165779540560    2.54148335988871   -1.70643759931116
O           1.89287301616165    1.52625654796147    0.56248230329192
H           2.32950746056869    2.32871491185195    0.85107447659752
O           0.64931413422041    1.32961801108666   -1.87490321061955
H           0.39852614777625    0.38627599528226   -1.86858424697402
H          -0.76016144793040    1.84675446453958   -1.42470422337506
H           1.24130568234685    1.43848557172593   -1.10618085824715
O          -0.61012797840264    1.55067148860848    1.47730654349705
H          -0.94802842596831    0.64277685316679    1.43140910017283
H           1.00301238256797    1.52488529615192    0.99294139603885
H          -1.08858034575415    2.02334794566016    0.78283799200171
N           2.08552028728727   -1.43727539337315    0.17138019953662
H           1.39981082893651   -1.44945964109118   -0.58111520322395
H           1.15183887821993   -2.04389743056236    1.31375364463017
H           2.91533746672352   -1.91930735765610   -0.14716154059997
H           2.32374638134988   -0.46498899467358    0.34278209642555
