    26
        -50.45739750  Gyration_radius:  2.57149643546 Dipole_moment: 4.499
 S          -0.47851600513383    1.62967213679028   -1.98239313519548
O          -0.51094170487699    2.83584122026028   -1.19115746893243
O          -0.80131586001023    1.76445245380648   -3.36519989127805
O           1.07362783453232    1.12932676563404   -1.93898139649279
O          -1.16274213632688    0.50995057994763   -1.31039563260180
H          -1.61505085051605    0.62989266545410    0.26723181505931
H           1.48109061802310    1.81151801718191   -2.46147843880760
O          -0.61276358579860   -3.24557527149988    0.53506251331296
H          -1.55860673913658   -3.38310374486988    0.46519765547563
O           1.95454608506461   -0.10322841250418    0.91876233283388
H           2.88234686906958    0.13051730029826    0.88793954849580
O          -1.81079935270120    0.66942933093814    1.23417648076987
H          -2.69062470181100    1.03873782891618    1.31455316747871
O           0.56552826200930    2.07377065514712    1.06660905583395
H           0.25389935225172    2.45407499015526    0.21344169446952
H          -0.24721192299149    1.75385001966054    1.48592268707598
H           1.45366443542601    0.76902523700131    0.95005763751189
O          -0.22265004214508   -1.32804179800177    2.29381219823301
H          -0.47598691738250   -2.65568729025100    1.32243063081624
H           0.64612249037069   -0.96495263368773    2.07545195376836
H          -0.86193570713592   -0.64031211879070    2.04163736331464
N           0.55689355684985   -1.39771201249355   -0.98012924946444
H           1.03577596694931   -1.65595319622351   -1.83534297699069
H          -0.18266063426285   -0.66104657297399   -1.19197956940725
H           0.10745900936505   -2.22528956834659   -0.50600152034226
H           1.22085169035676   -0.93915660156421   -0.30922743494660
