    26
        -50.45739758  Gyration_radius:  2.57185321228 Dipole_moment: 4.502
 S           0.41838698434792    0.19280293305105   -2.57052228155643
O           1.85836825167219    0.24086817131193   -2.49033750903502
O          -0.15462883719079    0.36845331206356   -3.86489223209364
O           0.01336492184239   -1.31890883052487   -2.11032998382411
O          -0.22067791803585    0.99817351581103   -1.51380479341416
H           0.66836073937667    1.59953639848586   -0.26645393934568
H           0.34652413115584   -1.81168324000763   -2.85234755831500
O          -2.54629302282533    0.82845054067169    2.00645529142416
H          -2.70643963934123    1.76832636359817    1.90970755863661
O           0.38029026639142   -1.84501139558513    1.06135354843797
H           0.57159862785922   -2.78210683570262    1.02074017828371
O           1.18442028049955    1.88897823019462    0.52399717714668
H           1.54183508093740    2.75101055036211    0.30923134136295
O          -0.00406421298454    0.51918546770374    2.60921453678336
H          -1.64100119593769    0.74119818404653    2.40574585134096
H           0.20610445285192   -0.38459357226016    2.33849928805894
H           0.46100590692318    1.09392568238749    1.97787547966714
O           2.33251196847581   -0.56115644547425   -0.04744421667004
H           1.14926230048394   -1.38864300427217    0.59953338751470
H           2.23380556936993   -0.35734426771448   -1.00579554612654
H           2.25947838292410    0.30528823818812    0.37990338968286
N          -1.69706448081045   -0.57881866382792   -0.08562720647618
H          -2.34593916302291   -1.12734483064465   -0.63835361343417
H          -0.96069275430324   -1.19492359201360    0.33809597104317
H          -1.16958264967127    0.09656654306940   -0.71798026182360
H          -2.17893398100535   -0.04222946291765    0.68353613273454
