    26
        -50.45391071  Gyration_radius:  2.52581946429 Dipole_moment: 5.301
 S           0.41405482835836    1.25784741535192    2.06537006898812
O           0.97946597644056    2.37199416740695    1.33733747733249
O          -0.92802127264578    0.91729523636149    1.62841319079206
O           1.30773251036522    0.09779485767640    2.03933844205635
O           0.28241855775533    1.69723928975873    3.58731823248102
H           1.11732451199081    2.10101065456238    3.81030608421379
H           1.92840324424912    0.27264377821556    0.55366296995348
O           2.13736786870869    0.54610155358940   -0.37772245651482
H           2.61976667620315    1.37029701700107   -0.27293367989922
O          -0.25186170245633   -1.86061140364642    0.97203732708142
H           0.28174445028348   -1.24746064463548    1.50531624752892
O          -0.96677440357520   -0.81687127504029   -2.64484923408921
H          -0.85911297615521   -0.92832898489149   -3.58939136351610
O           0.99530606860804   -1.88556294356105   -1.35503410038573
H          -0.20109869888896   -1.30712778221070   -2.20947703087748
H           1.66810278216303   -1.21723723923104   -1.18195952119664
H           0.56158903822570   -2.03848174975450   -0.47601460499529
O          -2.58243483680891   -1.00429260554955   -0.37890605613152
H          -3.12480800515394   -1.77388440939516   -0.20204425728357
H          -1.09084675890114   -1.40145863574046    0.80462642892253
H          -2.20026916664132   -1.12369643697617   -1.25972241388859
N          -0.43186617824470    1.20211653214210   -0.89693528490216
H          -0.84195914828884    1.03768039822590    0.07675503492884
H          -0.59115713898419    2.17185540796404   -1.15065078669603
H           0.60084647333861    1.01904790603131   -0.78537043381354
H          -0.82391269995219    0.54208987634650   -1.59947031009157
