    26
        -50.44955284  Gyration_radius:  2.67182682153 Dipole_moment: 6.806
 S          -2.75637714284818   -1.15022999006756    0.16964800810950
O          -1.86465200912064   -2.19912919354616    0.67882213912473
O          -4.13261359152448   -1.29660483842782    0.51590925009454
O          -2.27262645389021    0.17903032694064    1.01001993472618
O          -2.44980115419467   -0.82910789845938   -1.20904788916120
H          -1.14269486176358   -0.01341816873340   -1.76657201116476
H          -3.07768204639605    0.35204266936308    1.48723259874539
O           2.14656274182585   -0.55235334903205    1.19610993252408
H           2.69918309948044   -0.70444220378993    1.96307451859562
O          -0.21087168165724    0.30719496675612   -1.84706517626854
H          -0.18377098891554    1.14921633133526   -1.36806884486893
O           0.61922332173936    2.62426639921788   -0.41448768405688
H           0.70734478699408    3.55207027618325   -0.63332936459743
O           2.62121686115253    0.99241839073178   -1.06386734062416
H           2.61424312334026    0.40774150566954   -0.28580460894495
H           2.10307151333873    0.55360553703968   -1.74579868145633
H           1.47327763631438    2.18801270381422   -0.64719189756945
O           0.21189626493624    1.07126204227974    1.80282723970582
H           1.41860312212468    0.07003043937392    1.49594549253600
H           0.30175995435355    1.77620414112704    1.13780738341813
H          -0.66279561436270    0.68365996724632    1.63754122389265
N           0.39355570884915   -1.84815636625300   -0.42736295343239
H           0.66073864891802   -2.65962238631828   -0.97330109265769
H           0.23448880746675   -1.00713793036391   -1.05215993966292
H          -0.56769643010454   -2.04006804132316    0.06780655316269
H           1.11641638394110   -1.60648532076325    0.27131323982968
