    26
        -50.44955309  Gyration_radius:  2.67243622647 Dipole_moment: 6.807
 S          -0.65022180000090   -0.70579473304064    2.83451660276781
O           0.47899544967811    0.22842070800872    2.91724975693626
O          -1.39239798975957   -0.87610702294119    4.04089368558416
O          -1.69481353310910    0.07313818817744    1.82997891428308
O          -0.28398985198084   -1.90302087229311    2.10635722393995
H          -0.02509497704407   -2.04424126760446    0.49427486003002
H          -2.41671438628102    0.19791893137351    2.43746696277499
O           0.25670141548195   -1.81744649235926   -0.42583440752048
H          -0.53837250983303   -1.47884002900047   -0.86458808539450
O          -1.56365440049226   -0.50626872631562   -2.17811444491130
H          -2.16142025236133   -0.80695116383565   -2.86268285177277
O           1.19037395043654    1.96442532746893   -1.02955563772895
H           1.35314338023110    2.89374743692410   -1.19289511983674
O           0.99416302657411   -0.14501787799000   -2.82593361471792
H          -0.68893860905041   -0.34558456892888   -2.60585547694680
H           1.18698927381702    0.64618402473564   -2.29276299829452
H           1.27935914349641   -0.90472666001795   -2.30859122398645
O          -1.31131371346938    1.59225651209426   -0.43762586797818
H          -1.59077382216617    0.91911761773868   -1.08253984654339
H          -1.42782374503754    1.17009366109785    0.42893716621296
H           0.21669278967724    1.88839880025851   -0.79864418426395
N           1.78558400730230   -0.00043612133926    0.75234119084982
H           2.73885115118744   -0.29466597968158    0.93293845775801
H           1.25353082558561   -0.74631226583851    0.21984410605796
H           1.25414388211106    0.12504436427356    1.70517098490738
H           1.75700131501177    0.87666820902422    0.20565384780126
