    26
        -50.44955288  Gyration_radius:  2.67309689776 Dipole_moment: 6.819
 S          -2.19147298332578   -2.02341924438972   -0.25025083562468
O          -1.68918741751629   -2.16261871662423    1.12199901105410
O          -3.47817344406412   -2.59084309564796   -0.49065275596134
O          -2.43873326130026   -0.40252690789650   -0.38554692911789
O          -1.15066335221665   -2.30556043263820   -1.21716980277012
H           0.15725312804457   -1.38540910982468   -1.57558966367013
H          -3.38177237183448   -0.40865061297085   -0.51384342746009
O           0.92042177945403   -0.76783478202709   -1.45921894434459
H           0.58344632437938    0.10864776746505   -1.69932013703694
O           0.51194332867471    2.03313926225224   -1.74474941018334
H           0.63391993308162    2.65187657818463   -2.46498325251052
O           1.03057744025749    1.14343100739718    1.98959033224382
H           1.02026222798389    1.65385913620786    2.79962905429073
O           2.63465280412842    1.41305067621662   -0.26119444223528
H           1.36735310146657    1.98479942482048   -1.25494133599546
H           2.21029805513751    1.35180193789650    0.61270908469793
H           2.67803063464215    0.51818669529522   -0.61238807422669
O          -1.01249872208126    1.77638450119771    0.51611607420621
H           0.21783893737039    1.42493087775812    1.47236981216331
H          -0.60380954741227    2.01617019245815   -0.33388454447069
H          -1.57521985079383    1.01106059542272    0.31499458606908
N           0.73597256022098   -1.41035249805475    1.10527962811778
H           0.91132801886685   -1.15962591290574    0.09054035309069
H           1.35028038587197   -2.15911695343116    1.40503633413216
H           0.86493794699285   -0.56111133549920    1.68074691692148
H          -0.30698567601866   -1.75026903067887    1.15472235863378
