    26
        -50.46379651  Gyration_radius:  2.41552402102 Dipole_moment: 9.061
 S          -1.40534991026264   -0.54435164547483   -1.24956488031517
O          -1.64710285885142   -0.43348799284108    0.21354820721490
O          -2.53540208050792   -0.10002512451093   -2.00433403333477
O          -0.20204833450441    0.44724296319266   -1.53024226391381
O          -0.86893879723161   -1.85694976080384   -1.55144790274647
H           0.52833869469189   -2.18664578447313   -0.96768780138592
H          -0.67770372701037    1.33197646938245   -1.61126102465310
O           1.38697223376769   -2.41296612608459   -0.49233566265869
H           1.64070780123953   -3.27519024613940   -0.82492582219009
O          -1.75460063376739    2.45007662684645   -1.50910982098983
H          -2.44238424881205    1.79826609266546   -1.72084771311908
O           1.48678678488190    1.09698999889223    1.69452769296134
H           2.15819271108993    1.59710013295998    2.15973472817298
O           2.33905952165883    0.20123489180562   -0.61605716583599
H           1.56515580952149    0.45289859140879   -1.14677918943639
H           2.30396385917666   -0.76760147873584   -0.60146496976579
H           1.87182605510304    0.86199500503136    0.80555169423086
O          -1.26884171147973    2.04373858268111    1.12523251642538
H          -1.54970377693624    1.13812419279326    0.89255760883736
H          -0.32961665219899    1.97218445890099    1.33400054246458
H          -1.74649235120148    2.56648186895732   -0.53666127097177
N           0.24502663547954   -1.29579329248001    1.66286392610661
H          -0.04797955902195   -1.80759405977202    2.48700047411725
H           0.81515674107755   -1.87903987160666    1.01684519409827
H          -0.62441686709243   -0.97414572595262    1.06480319061357
H           0.75939467118664   -0.42451879663837    1.90605373607256
