    26
        -50.46379648  Gyration_radius:  2.4159120009 Dipole_moment: 9.066
 S          -1.51144979250086   -0.02824305625918   -1.24466741984276
O          -1.62533829321681    0.52471596107113    0.13112462309278
O          -2.26834095424140    0.73930187482923   -2.18388513832198
O           0.02355830672354    0.11974683689731   -1.60717330391401
O          -1.73743074138625   -1.45987794218442   -1.20885948786108
H          -0.69868355075325   -2.30705917848776   -0.43113297021057
H           0.07098195982063    1.07715932058775   -1.91796581305220
O          -0.06961689293431   -2.82055890502659    0.16477526127097
H          -0.30329079224068   -3.74221145629869    0.04472218617095
O          -0.27192216677045    2.57548147389525   -2.15879548026307
H          -1.20233857580885    2.33405732388269   -2.29586202879451
O           1.87661617049302    0.54756851982052    1.57363861116051
H           2.72002678096202    0.72706757960943    1.99049038034663
O           2.09078021622530   -1.15814936817396   -0.40415745776265
H           2.06451333059817   -0.04653348439841    0.79552428758164
H           1.54676799577285   -0.67943362231085   -1.05135893728764
H           1.56120794752696   -1.94217822650820   -0.19198602311020
O          -0.00240490726147    2.60101090318746    0.53766490420809
H          -0.71531750024765    1.93716245053584    0.47258165508068
H           0.76899652911146    2.11463218513266    0.85259835297829
H          -0.18124466714936    2.89266913140133   -1.23665613197574
N          -0.42324073291820   -0.81731442232137    1.91397027300325
H           0.47247523523690   -0.29876592237551    2.02203885622235
H          -0.25050446187076   -1.73975233331792    1.46492739215499
H          -0.92182432510236   -0.90346535868865    2.79204083504320
H          -1.01297611808185   -0.24703029451393    1.17640257408710
