    26
        -50.46942763  Gyration_radius:  2.44014164861 Dipole_moment: 3.752
 S          -1.47678019251238   -0.75672352612333   -0.62262864054489
O          -0.28114315525095   -0.38208096174241   -1.41562861381829
O          -1.74471942372774   -2.16846163453662   -0.71641812124914
O          -1.28848153040506   -0.31681459450564    0.75930424087079
O          -2.67324230284338    0.01663235154158   -1.22680832454159
H          -2.44785867006541    0.98301175365876   -1.18775534142513
H          -0.59608185129641   -2.07590680793571    1.88443122194226
O          -0.28131161749889   -2.81301394223753    1.34926211181743
H          -0.91635769469119   -2.82091295841302    0.59560986736413
O          -1.93718015477104    2.53191514790554   -1.27391323559796
H          -2.07034633275684    2.84008089880011   -2.17237243625151
O           2.71578759168832    0.46288172249442    0.72943735695849
H           2.63576015558846    1.08040899897540   -0.00704282157995
O           0.63390759583831    2.01790728334748   -0.80528048086334
H          -0.95942964504760    2.50347705550515   -1.12997094238405
H           0.57372598488673    1.98768988575317    0.16403168716727
H           0.37222136748989    1.12016317992097   -1.10889774973673
O           0.39130213798942    1.29996714939969    1.84975398165227
H          -0.27147429919713    0.66734962941592    1.46197144743444
H          -0.05187392069740    1.73193212106723    2.58060927498702
H           2.03361173208509    0.74632104429284    1.36438367724262
N           1.55716722139856   -1.74999107004930   -0.21565958510417
H           2.14515820667944   -0.99240155811334    0.22147106338800
H           0.84697563621106   -1.25300160134875   -0.84067800031138
H           2.12232345420864   -2.40305601271635   -0.74756048614981
H           0.96833970663935   -2.25737354449795    0.51034885864227
