    26
        -50.46709000  Gyration_radius:  2.46687515266 Dipole_moment: 4.127
 S          -2.01347368959527   -1.27110747076279   -0.13056163979908
O          -1.56132579422073   -0.66798362496878    1.13308233717185
O          -2.85422700896599   -2.40933481050566    0.04082736242797
O          -2.91498220563979   -0.14259499139545   -0.82797591407509
O          -0.87735321022250   -1.43902892611810   -1.02741180588392
H          -0.64605129619817    0.02814769653709   -1.66328561490776
H          -3.78136524845120   -0.43237414721793   -0.56581560113055
O           1.76632842689939   -1.81096936289799   -0.62622641511811
H           0.85748490890830   -1.89792519150553   -0.96578097928672
O          -0.48730091031157    0.95369531545438   -1.97234024069754
H          -1.14769145227890    1.12062156023167   -2.64590040158709
O           1.55621090226848    1.70576545127203    1.35451683449806
H           1.79960614437427    2.46501027786241    1.88420019014845
O           2.19743073567124    0.74812706159996   -1.24335997166884
H           2.15649900308842    1.18464067384450   -0.38041294122029
H           2.09234952357880   -0.95306788976440   -0.99044996873511
H           1.35122835326461    0.94005868220059   -1.67467089239236
O          -0.90216031673247    1.85708676363912    0.55669977010518
H          -0.82182067750219    1.75741524849409   -0.41052436540322
H          -1.28171034153144    1.00721111892841    0.85506486377137
H           0.60424003953877    1.85377743471646    1.06484095902817
N           0.99340093340159   -0.92672418977398    1.67795313047389
H           1.40749036789348   -1.38322366624604    0.78081996496228
H          -0.05521954733748   -0.88159836180780    1.52856838555004
H           1.21658363027030   -1.45518977587598    2.51333496286816
H           1.34582873983243    0.04956514406110    1.73480797090026
