    26
        -50.45564912  Gyration_radius:  2.47630405528 Dipole_moment: 3.758
 S          -2.02409589413587   -0.11542607755766   -1.18356678422686
O          -2.99617007391427    0.86257156955826   -0.79703974711918
O          -2.08679707913461   -1.34183075923275   -0.39090108252389
O          -2.35289294815158   -0.54145307099526   -2.68392118760368
O          -0.65341612238708    0.38878662285855   -1.24166974804772
H          -1.09967801480519    0.77271106276233    0.42960817152442
H          -3.30403113228571   -0.52039659841170   -2.74015957654813
O          -1.22004120826202    0.89872586291933    1.38360687056138
H          -2.17260339085085    0.92317084144975    1.50225153640325
O           2.59011622590441    0.23950592548271    0.73361917128112
H           3.48526398946561    0.49363784222348    0.95874878281426
O          -0.01390721506559   -2.51349230113262    0.34712415265307
H          -0.92876426300763   -2.12338450211079    0.04082243200639
O           1.43234582057622   -1.23671275212418   -1.25923912950131
H           2.02529239554360   -0.76159126246556   -0.64654123416226
H           0.65431220301918   -2.14265492687701   -0.37079083642836
H           0.70361007848289   -0.60624930824119   -1.45247846396214
O           0.59601533021904   -0.91969025300055    2.19360352773992
H          -0.10504562214887   -0.24439372888893    2.08151979573129
H           0.22524851379181   -1.96210791172078    1.21113563397628
H           1.40307376331624   -0.51985575713254    1.81501704624702
N           1.15005392239340    2.31696249906091   -0.01656500815953
H           0.54524550520116    1.82645154166229   -0.67275315499051
H           2.09889551718391    1.07726783724119    0.46889506018113
H           1.48694118623372    3.15620350083656   -0.47116462590542
H           0.56102852267969    2.59324408382260    0.76083838833306
