    26
        -50.45004756  Gyration_radius:  2.53825388311 Dipole_moment: 6.001
 S          -1.06637274316592    2.12783619727679   -1.09680923274057
O          -0.84234797095306    0.73048510366744   -1.39690061808657
O          -1.72229739829152    2.90912336725858   -2.07443546520120
O          -1.83701094214392    2.21826223465932    0.24643975859841
O           0.30735578469239    2.77354026538288   -0.77300162160393
H           0.91226974738890    2.11794719199738   -0.32308358574386
H          -1.75077630311997    1.38877897800023    0.79701745825181
O           0.44864643120646   -2.70663434216507    0.27781800440939
H           0.27591355093915   -3.59098445569703    0.60259276762273
O          -1.69368227451071    0.15944095733184    1.81113103153440
H          -2.00045109449278    0.45716987474281    2.66903514203746
O           1.99378643906286    1.09934478475951    0.26392785891453
H           2.86369426166398    1.49820666055594    0.21103303368236
O          -1.83954550204787   -1.56429760009274   -0.37948396413427
H          -1.55212130468552   -0.80467362104851   -0.91697276135404
H          -0.42730125057401   -2.34683248179605   -0.02585749443627
H          -2.12279088866599   -1.16797300152351    0.45477722690405
O           0.75818081836269   -0.63039270440463    2.01759742485617
H           1.27584660443049    0.03250706904663    1.53300755437868
H          -0.73836179096595   -0.13769190137780    1.93525087638877
H           0.76312758269857   -1.42985588813376    1.45284345080423
N           1.64180899627437   -0.70487308291333   -1.54205578190554
H           1.94426436743599    0.37389539440269   -0.46626377726985
H           0.73208275436754   -0.34200614291400   -1.82062006483144
H           2.19538221810119   -0.86342546599600   -2.37310292738125
H           1.48069993698982   -1.59689736103531   -1.08388430369835
