    26
        -50.47298407  Gyration_radius:  2.48774255133 Dipole_moment: 1.929
 S          -0.99734737522096    1.42122955268720    1.26091410293908
O          -0.11248178873548    0.33449418395217    1.67584306278194
O          -0.43482603257925    2.19395302256678    0.17400189880698
O          -2.34800796653885    0.95404660085089    1.02290153204716
O          -1.08835312457944    2.41037895566568    2.49672723916936
H          -1.70833895543629    1.96471307565651    3.06429158343750
H          -2.45779532987684   -0.12159272899624   -0.16383124860574
O          -2.42430505356505   -0.77791916332573   -0.90702270850947
H          -3.32905462006255   -0.89360295401340   -1.20160388767673
O           2.06224170820307    1.43056638388258    0.75109172964460
H           1.42158905735306    0.91742150922173    1.28958305918789
O           1.68646993209593   -2.63091201566066   -0.37922506343642
H           2.24645548020598   -2.88938651150053    0.35432985192355
O          -0.43337151073053    0.70568801834836   -2.02799173554453
H          -1.15084855823106    0.07840146703702   -1.82546330474484
H          -0.48994808641026    1.38475344981705   -1.32334698379389
H           1.50782938720839    2.16190393891539    0.44132170680107
O          -0.62179781496555   -2.11450358376383    0.72092745144037
H          -1.31173155085384   -1.89844759650499    0.07586843540114
H           0.77136264577124   -2.53256007882815    0.00748231701033
H          -0.44155424552205   -1.27243041065486    1.18410249448635
N           1.95181202270357   -0.17169517421211   -1.35362246388125
H           0.99458520668671    0.11293293611793   -1.73129866452675
H           2.66358612749913   -0.06279061696852   -2.06719785108850
H           2.13723796830039    0.46651050119398   -0.52360646281093
H           1.90659248725479   -1.17115276147270   -1.01517610043089
