    26
        -50.44196634  Gyration_radius:  2.42198685441 Dipole_moment: 3.724
 S          -1.61991700242331    0.81205084641509   -0.73394083008187
O          -2.88246315919473    0.12328689992031   -0.71781437664677
O          -1.52545900118364    1.92945243612242    0.19006147484531
O          -0.47193733162289   -0.07618070522392   -0.62214111404708
O          -1.45763493073108    1.43491985504056   -2.20888013216938
H          -2.22353680617489    1.99253418957365   -2.30923544602506
H          -0.23464641143370   -1.23109014325937   -1.66317370422834
O           2.52871299686388    0.95660615255999   -0.87791613632497
H           3.38951170350448    1.27104775109540   -0.59403995638901
O           0.71286516457915   -1.09502075950457    1.84545573221103
H           0.74631837277711   -1.87178256620318    2.40643820452666
O           0.28927129530848   -1.91318766842152   -2.17298547329981
H           0.51137140993063   -1.49454257826184   -3.00737447308086
O           1.99092663688181   -1.44049220834450   -0.35255197408250
H           1.41035344370188   -1.31956582470091    0.48591183849132
H           1.34904708495716   -1.74177631184359   -1.10767926047407
H           2.25610322541657   -0.45801322374365   -0.61305429743990
O           0.97025955313245    1.76958044371202    1.00927077165629
H           1.85979840274472    1.36353509881303   -0.24126174916623
H           0.05618213352632    1.92344574353648    0.67503077224533
H           0.91546984127200    0.94925197078050    1.51295702691281
N          -1.81874233746466   -0.38433772172249    1.87332348429343
H          -1.77271335291688    0.62805270202171    1.79168177163265
H          -2.28476881984552   -0.67555730249896    1.01729419102100
H          -0.26597466741174   -0.84755846684726    1.76145603385878
H          -2.42839742419754   -0.60465861903286    2.65316763174205
