    26
        -50.44412416  Gyration_radius:  2.40817223665 Dipole_moment: 7.589
 S          -1.20616874625984   -1.56629134380504   -0.36890853456844
O          -2.56028434805857   -1.10558803836374   -0.56919218480989
O          -0.80224660768711   -2.67817313059043   -1.17924722868504
O          -0.27161212668495   -0.31349090685140   -0.83174804491929
O          -0.83635017727185   -1.67209162532089    1.04395696967613
H          -0.72010552362697   -0.27549362771124    1.58101020998710
H          -0.44011476977731   -0.18637690015226   -1.76136638683281
O          -0.58475332509433    0.65851480922904    1.95688472873377
H          -0.35836957471174    0.54019459381272    2.88093999370056
O          -0.67130790983773    2.44324218405331   -1.39500848009061
H          -0.85706934900109    3.38138072120130   -1.46504064862237
O           2.67868254127271    0.07208034573359   -0.48290304091334
H           3.48708961913477    0.08759445544129    0.03262114993843
O           1.04987857174554    1.79253458968396    0.34195770644772
H           1.70513178184168    1.06120723985216   -0.04463970102444
H           0.41427364733553    2.06297507202909   -0.43531242926909
H           0.43302309191698    1.31878213503491    1.00616726331444
O          -2.54537844609818    1.42374770833682    0.06134088203777
H          -2.12118307571485    1.34675082353494    0.92513421957255
H          -1.45927710742533    2.03348619884971   -0.91563609571852
H          -2.68848392860954    0.48845682702793   -0.22430382944902
N           1.68919210869405   -2.27912267823118   -0.00260626341784
H           1.00106027126631   -2.14339106639338    0.73591280674341
H           2.28254834500124   -3.05905515758198    0.25536982168197
H           1.11535687204873   -2.57303457569871   -0.79158257414987
H           2.26646817561814   -0.85883866311774   -0.35380029936748
