    26
        -50.44412418  Gyration_radius:  2.40818996592 Dipole_moment: 7.589
 S           1.61820512678660   -1.17006080842872   -0.23775768124441
O           1.96189263949952   -1.79238859133742    1.01949269746464
O           1.82438691680146   -1.97525465705489   -1.40615283359638
O           0.01030016085241   -0.91789248478506   -0.14706876341268
O           2.10203375324577    0.20739566823314   -0.35030469854230
H           1.28559506587326    1.04598480552408    0.58911417248233
H          -0.39042089240531   -1.78078941727622   -0.08826947663025
O           0.71466523312259    1.64496076353542    1.17836467777755
H           1.07447749994822    2.52843231303375    1.08282222815114
O          -1.75726788454496    0.67453747098432   -1.96729908770303
H          -1.99561479359985    1.46204857775166   -2.45977636962829
O          -1.95752350987373   -0.95511499572803    1.90294407790734
H          -2.54648475141040   -0.88038763242720    2.65597490783521
O          -1.70233087248977    1.13408368692525    0.49834121105825
H          -1.87703695753888    0.24909254151386    1.01562079035535
H          -0.73391035443352    1.36512872982687    0.73289653101946
H          -1.72062194867335    0.89190104125521   -0.52859296740564
O           0.44336437832995   -0.65619744941906    2.80785269936957
H           0.63742968296722    0.26347213616306    2.58747810479070
H          -1.01935683983960   -0.94287192635770    2.27482571467023
H           1.05884591088995   -1.17864117215452    2.23768067429961
N           0.66426448055887    0.16763601097043   -2.75305442642301
H           0.84808915408109   -0.83038320943613   -2.66192628709320
H          -0.81373290651082    0.41154831894641   -2.27341081045642
H           1.27447361460018    0.57279784243257   -2.04533706198495
H           0.99627808377388    0.46096244736152   -3.66445800305554
