    26
        -50.44128634  Gyration_radius:  2.56631771224 Dipole_moment: 7.934
 S           1.98750871067070   -1.40388687580306    0.41171672461788
O           0.89413417744664   -2.34339479015369    0.29470368779037
O           3.28822225259589   -1.92232265971238    0.61988579451767
O           1.96662218892739   -0.49289760750631   -0.84990838372274
O           1.63806764735696   -0.38113256368355    1.52848738123343
H           0.73238677145100   -0.64285680132229    1.90372551654821
H           1.35996488835584   -0.95439663674603   -1.54558358269798
O           0.34942300514505   -1.77355393288581   -2.27342627789804
H           0.29742261788911   -2.42427616234075   -1.55777276524919
O          -1.20324635992766    2.13814008539263   -0.46200557741624
H          -1.44261704090783    2.99113392590276   -0.82592347595238
O          -0.63752430999237   -1.27884312582472    2.19465163236325
H          -0.41360081659834   -2.00037502466981    1.58541303269167
O          -1.78795750920475   -0.26037920601035   -1.75271101238258
H          -2.29587636700920   -0.58974044639913   -1.00464010169566
H          -0.48023898319520   -1.24270278083658   -2.22265636700632
H          -1.50541398175437    0.63231468445503   -1.49380905402905
O          -2.52571282338680    0.26914077879406    1.00773814162708
H          -2.06890571996554    1.01555609477475    0.57270721274355
H          -1.35367007980363   -0.76171654028035    1.77060553044447
H          -3.13449016802086    0.64533130184571    1.64487553139785
N           1.37023611726987    2.20737455166178    0.11300593566295
H          -0.22314645455289    2.18268608836674   -0.23855176404942
H           1.51394831141943    2.03108699340163    1.10100605197576
H           1.71032924886044    1.37671006659649   -0.36685675036524
H           1.96413467690613    2.98300058288245   -0.15467704118435
