    26
        -50.45774229  Gyration_radius:  2.54303505499 Dipole_moment: 2.966
 S           0.25214868650239    0.35822504405843    2.22658227280744
O          -1.17449198716454    0.49315679525248    2.05226574850807
O           0.70214188696386   -1.01342979830997    1.98798196388200
O           1.04654450191828    1.31945532648944    1.47833200510217
O           0.54187661311904    0.66212113086430    3.75989050665721
H          -0.25463224052716    0.36935662632522    4.19194094218196
H           2.28256429585734    0.48473128144956    0.60224388186328
O          -0.60732935023633    1.41648570456480   -2.14733029477025
H          -0.35952805399576    2.16362541891704   -2.69299374331331
O          -0.81439694575857   -2.00797239452050    0.13186724952496
H          -0.34359126006646   -1.60370424825564    0.90267188586171
O           2.60363084413603   -0.37154324591758    0.25030101442324
H           2.23608795082585   -0.98057648376456    0.91366799237769
O          -1.93328753815254   -1.12346739497822   -2.39273669843296
H          -0.93968313665897   -2.93302995700927    0.34969694445203
H          -2.05202395852754   -1.34476676401053   -1.46369824085837
H          -1.82954655658102   -0.16586405172604   -2.42766062592061
O          -1.00182880739632    2.39507432479602    0.22022621202251
H          -0.10759607808661    2.32400644748917    0.60107076456820
H          -0.82404161882730    1.79733729136517   -1.24470180649075
H          -1.49335310070299    1.77617071643811    0.78729420907221
N           0.82964125517924   -0.80718658635882   -1.63702818117126
H           1.64431625008021   -0.61294419287748   -0.96956621429936
H           0.34630816073267    0.08672890558897   -1.89784308938414
H           1.11961011030171   -1.30053521332117   -2.47496405423867
H           0.13046008708737   -1.38145470258359   -1.10751061442439
