    26
        -50.45774257  Gyration_radius:  2.54300841177 Dipole_moment: 2.957
 S          -1.00718162804439    1.71871471248044   -1.08701630409841
O          -0.99349974309707    2.18258551778273    0.27993303656284
O           0.34342924329656    1.62708897596281   -1.64321892382096
O          -1.75888866157433    0.49284652433515   -1.30246993702229
O          -1.76004660000523    2.83841012413785   -1.92735469536106
H          -1.55576235698559    3.63802299678268   -1.45238217965721
H          -0.78607661270515   -0.63855706776253   -2.19737337072623
O          -0.68844935905371   -1.90139704018963    1.70001086966653
H          -1.25730671424608   -2.65714124997919    1.85035314006722
O           0.11856555316351   -0.87470001259431   -2.48831753101293
H           0.52033010166264    0.01056214787801   -2.53815596223590
O           1.93402789083314    0.94792018631080    0.29239776428859
H           1.29214474684211    1.30452262172329   -0.37077118691347
O           1.89095355006598   -0.92055128567761    2.50908819613531
H           0.97993868607280   -1.21896837937601    2.60896119681197
H           2.76215086269596    1.40468024326494    0.13580432386205
H           1.84111519273772   -0.01602119368929    2.18428987847328
O          -2.28889400475299    0.08578731100333    1.24439096280884
H          -2.38732912976687    0.02685152186747    0.27652008302554
H          -1.30215001649423   -1.11574668790571    1.58596627424831
H          -1.83221081560044    0.94012991477850    1.33149977309548
N           1.19562661307878   -1.59814070766868   -0.20477507226625
H           0.76441638815547   -1.43683403541492   -1.17172639055625
H           0.44873043883274   -1.81073231469924    0.50064546615088
H           1.89138931479495   -2.33672817560403   -0.20493687633137
H           1.63497706007331   -0.69260464772760    0.08863747482841
