    26
        -50.45774243  Gyration_radius:  2.54265804471 Dipole_moment: 2.961
 S           1.63242952387352   -1.37548434387865   -0.76816812484385
O           1.63248610228080   -0.31384057357718   -1.74630893684668
O           2.08496517034296   -0.90610158827418    0.54239607047384
O           0.38106919925359   -2.10900357895389   -0.67099008086393
O           2.71367521599906   -2.43162658835657   -1.26031157682225
H           3.35169225669322   -1.89094783421016   -1.71539013607185
H          -0.11719564276135   -2.20698256510432    1.00076230956156
O           0.00849897858126   -1.83496096496746    1.89717229316376
H           0.93839475519169   -1.55160977206277    1.83722188462759
O          -2.44589670113893    0.70281897679329   -0.70534920106670
H          -3.33568498739735    0.39767890532931   -0.88573515631310
O           1.29473352960313    1.55321495305583    0.80066715634223
H           1.65230652815750    0.65419161068039    0.59372444033730
O          -0.92599362303899   -0.57837007679708   -2.36860415680702
H          -1.86055796351177    0.25776871665790   -1.38810160683219
H          -0.05152819497742   -0.15951435482689   -2.44595159016487
H          -0.70511727531138   -1.37143877720268   -1.84692051974103
O          -1.10771211205151    3.07083351274662    0.22650021915624
H          -1.65544985914779    2.52453696941139   -0.34845661892134
H           1.98278211468663    2.00958787197791    1.28776932956038
H          -0.19544889753444    2.84903960597752    0.01491263095612
N          -1.07132489897000    0.54166916692107    1.60897717657132
H          -1.68512670269463    0.56304052529649    0.75854910497352
H          -0.21891344240489    1.10615133650891    1.37685532601014
H          -1.55756258017560    0.95642571094369    2.39709952769290
H          -0.73952049349030   -0.45707683425735    1.80768025586939
