    26
        -50.45774175  Gyration_radius:  2.54521083997 Dipole_moment: 2.935
 S           2.17013586353374    0.08657682389878    0.68041171372264
O           2.29551623271865   -0.48021949984792   -0.64093641586605
O           1.69862215564056    1.47163772860365    0.63499359780805
O           1.39042006115208   -0.71314939232135    1.61119442473445
O           3.64022417329993    0.13689142052767    1.28300805452880
H           4.18575204836859    0.25367666114304    0.51141197787322
H           0.19978182587499    0.29326904537685    2.40111455649268
O          -1.83477908020802   -1.85127930607792   -0.44489029384527
H          -2.33091668205170   -2.57389536714707   -0.05885027782374
O           0.06977782197586    1.67097053829807   -1.37624190915424
H           0.77610246246058    1.54948356517943   -0.69401088619922
O          -0.28033088541781    1.14516269593600    2.36192108672008
H           0.38210799886948    1.69521437025116    1.90655412712632
O          -2.10707748632842    0.12673529379350   -2.51354304113493
H          -2.05943292140906   -0.75299595886822   -2.12262157509758
H           0.20774525742923    2.54222079221870   -1.75146712013536
H          -1.20044781845755    0.44565207429757   -2.56291679046899
O           0.65748379376752   -2.50807644053107   -0.16912856997862
H           1.24133188243209   -1.98366519644149   -0.74309211404164
H           0.85652637815928   -2.11901156496312    0.70231227037637
H          -0.87124015435460   -2.12749529156038   -0.40038304703809
N          -1.84009725521429    0.74369552854821    0.28767897226825
H          -2.76414019069565    1.16290881290848    0.28273618726138
H          -1.91136997730804   -0.28124384083508    0.07578763065130
H          -1.25212060014822    1.16477943366737   -0.47129484590548
H          -1.31957489410893    0.90215706398332    1.21025230717903
