    26
        -50.45004374  Gyration_radius:  2.53727528121 Dipole_moment: 6.015
 S          -2.15175075827082   -0.44262692069924    1.42301521007286
O          -0.91284155671485    0.30001138930643    1.50272576272294
O          -3.05340448971505   -0.32602425291304    2.50474154757468
O          -2.86446482794510   -0.05529234577361    0.10030680259199
O          -1.80041217987876   -1.94032203130695    1.21921935988074
H          -0.99376916998480   -2.03151265098956    0.63781212625537
H          -2.25663449102778    0.39953884884284   -0.55039257060590
O           0.37563427190939   -2.25541936933614   -0.15745326923748
H           0.63856700590809   -3.17426565397338   -0.08493579376849
O          -1.42826782520916    1.09912287682761   -1.71694415978449
H          -1.96361714888456    1.09051773377726   -2.51207502452214
O           2.31529013510379    1.33581816651305   -0.68254475891751
H           2.84004065810981    2.00023727798905   -1.13039357710570
O           0.69063040832932   -0.32793429721237   -2.10532095250153
H           0.56943975690279   -1.11022706077584   -1.54349210063022
H          -0.61545456786801    0.53559126160512   -1.91228926150943
H           1.38054056946861    0.20760596784687   -1.66331259156499
O           0.08779980695926    2.44553392197313    0.20099033432477
H          -0.24391539773968    1.78390052903495    0.83377867970085
H           1.52880913922618    1.81235086952305   -0.30406452457023
H          -0.50386916679885    2.36051213929231   -0.55791693857450
N           1.77041902378628   -0.71917374265385    1.37062698114352
H           2.34548854778200   -0.98958958896143    2.15702315618725
H           0.99706059464349   -1.70967164305338    0.45709113394644
H           0.95416553394436   -0.22053081490440    1.72018313059650
H           2.29451611796361   -0.06815062997632    0.79362130829759
