    26
        -50.45379727  Gyration_radius:  2.75535448799 Dipole_moment: 4.847
 S          -2.62489320430663    1.17252363815154    0.54851257720274
O          -3.56826886055359    0.15040302007901    0.17150253984553
O          -1.98236592908850    0.89566409705939    1.83620418408025
O          -1.63084288874000    1.45134797157427   -0.48383910620658
O          -3.44285358636385    2.52350893735106    0.73609049483628
H          -4.23290875417939    2.24704629766040    1.19184823941687
H          -1.57382768307916   -0.10964332525602   -1.13745024787543
O           2.28860205937502   -1.95613766086528    0.30260538975388
H           2.96817568508951   -2.62610531596949    0.22283699969180
O          -1.53064359793966   -1.09165252325229   -1.15459259675829
H          -2.43732742848279   -1.33799205146558   -0.93881756823667
O           1.04353594287083    1.32012726295865   -0.54876452539670
H           0.12683801097929    1.65387721548839   -0.59132653433598
O           3.36230107595517    0.50468860168349    0.62632531591742
H           4.12362810288684    0.78458899003065    0.11581229252168
H           2.60905575061204    1.02303479112323    0.29263218793540
H           2.75276186145582   -1.10956300644417    0.48051131005606
O           1.14848154854719   -0.90509089536491   -2.03252731351455
H           0.21362699194636   -1.14202633620937   -2.06837071567772
H           1.12549158162247    0.68121436998618   -1.29431824361993
H           1.53356980977905   -1.43757180279306   -1.31578319251250
N          -0.03678093130661   -0.56513135534786    1.03731970109062
H           0.52213972322249   -1.19385799877768    1.60707707478667
H          -0.52751604412405   -1.07458053932242    0.27104989573825
H          -0.79803225653739   -0.01495260762802    1.55758162493864
H           0.56805302042089    0.15628018574268    0.56788021632893
