    26
        -50.45004762  Gyration_radius:  2.53824944817 Dipole_moment: 6.001
 S          -2.03620635841060   -1.21782448472643   -1.11190467362673
O          -1.63344223340303   -0.70012409462597    0.17749340417057
O          -3.30776953298056   -1.82703651992784   -1.20373899389277
O          -1.93214705426836   -0.06971396252741   -2.14987138353362
O          -0.95662277334420   -2.23056101119463   -1.57895103284669
H          -0.05027233895404   -1.95786136012613   -1.25917371586090
H          -1.32935702399866    0.66849236556342   -1.84926075159508
O           1.40840216570946   -1.68017649479423   -0.66945452091565
H           1.95299560274980   -2.45882795649978   -0.79511206552017
O          -0.38282479545167    1.91363225999981   -1.53926935632104
H          -0.23534839613018    2.39486016427059   -2.35501665908175
O           1.26077772585972    1.47020060916261    1.96299586542892
H           1.55023970173143    2.26939312331618    2.40447068061733
O           1.88110807816556    1.03465378240483   -0.65591836754537
H           1.83746239278786    0.07177412378391   -0.77089207524341
H           0.52027143798648    1.58910410615075   -1.23041355028031
H           1.79762874409324    1.18690056478794    0.30740227882624
O          -1.22082377717081    1.79670568244570    1.12126631755833
H          -1.50119998746491    0.88445498002383    0.92699120115699
H           0.30383818274630    1.61171605071697    1.73251644721672
H          -1.09608222189903    2.19477493010164    0.24994302486882
N           0.64298939470833   -1.41559113795577    1.77715036576898
H           0.66657546294251   -2.11104011194127    2.51064939511197
H           1.17080934590502   -1.63079982446909    0.33188500756564
H          -0.32779504722223   -1.24223136088840    1.52343349321146
H           1.01679328530828   -0.54487441308736    2.14277967473246
