    26
        -50.47039607  Gyration_radius:  2.41520994989 Dipole_moment: 4.734
 S          -0.16307246820610   -1.70341413517177    1.09455030973283
O           1.06362754864587   -1.08337645318215    1.56914364142493
O          -1.34692414852825   -0.91294734506396    1.32131270925043
O          -0.02174122882354   -2.12692212633834   -0.30120060171348
O          -0.34809090718753   -3.03104572988590    1.93563118379411
H           0.49121110727814   -3.46443883418423    1.82530380942370
H           1.42601814282632   -1.54986259771645   -0.84779088886445
O           1.13661960506300    1.58304746202949    1.53716284025360
H           1.16483548449575    0.61979566248940    1.72085885609054
O          -1.26018562750085    1.43651464506573   -1.68655524318064
H          -1.73336752673628    1.79782120914623   -2.43690368667001
O           2.27278928877726   -1.04724380356308   -0.87126897505167
H           2.51960078701144   -1.01957752796608    0.06221002421823
O          -2.17441800021501   -0.95430728869868   -1.23521245420211
H          -2.50928136510252   -0.87889774743476   -0.33173401209078
H          -1.61530382189152    0.50701107522042   -1.55921314549174
H          -1.37666143555758   -1.50861435645471   -1.11182602941656
O          -1.47583434278995    1.77185181877575    1.16070283879867
H          -1.55510764601785    1.85114396293406    0.20059097070495
H          -1.56607816467183    0.81982262021879    1.35191559456394
H           0.18063378892533    1.82067560513646    1.59575666069068
N           1.38531197923426    1.43285299172209   -1.02838304087458
H           0.41320096687517    1.46367496807287   -1.39419233697552
H           1.78074527357294    0.45133998052177   -1.12702212504354
H           1.97151347927633    2.11652629597803   -1.49338762509981
H           1.33995923119145    1.60856963831737    0.04955071573122
