    26
        -50.47039606  Gyration_radius:  2.4152658473 Dipole_moment: 4.734
 S          -0.43913061924888    1.03320641338269    1.69310422447628
O           0.99896429039002    0.82783490965403    1.75659048338923
O          -0.87114636274724    1.82042727208069    0.56546553591451
O          -1.14888974206287   -0.24447435591247    1.79908781443733
O          -0.83110651204036    1.85756026109934    2.98589178528734
H          -0.44344449973352    1.34242857473184    3.68501494188626
H          -0.01504781074406   -1.44395348490119    1.75140055165519
O          -1.03524448681406   -0.83162882444748   -2.17562965197602
H          -1.55958582141623   -1.24467784708656   -2.86257686653690
O           2.29250763940975    0.75691756896335   -0.57552299660338
H           1.94328656279126    0.90425522022779    0.32927356345582
O           0.85672135671372   -1.89051376545828    1.64709305048138
H           1.47275728853705   -1.20744334846008    1.94186656731599
O           0.22001549664818    1.73945388899748   -1.89496264640273
H          -0.21133818331647    1.95262089455096   -1.04669723362591
H           1.70007623273929    1.28590527837145   -1.16128106654080
H          -0.22895444490196    0.94798463966243   -2.22123285067187
O          -2.65569744218443    0.02274561106269   -0.33177743805787
H          -1.68636919652104   -0.54120651490109   -1.46988532016147
H          -2.25216406499307   -0.26871894684039    0.51143492573583
H          -2.47530954757662    0.97228834745519   -0.32365891129684
N           1.27470760513353   -1.58754353395072   -0.94078613298133
H           1.07168003487788   -1.86867615016735    0.06378411311700
H           1.80040233205418   -0.63225206422162   -0.86250462314411
H           1.83738996368890   -2.28531804666384   -1.41380125456758
H           0.38491990132108   -1.41722197722544   -1.44969055458525
