    26
        -50.45994550  Gyration_radius:  2.51342970625 Dipole_moment: 5.818
 S           2.14750719941686    0.00004661986885   -0.23655182539069
O           2.87577459670031   -1.22935953346686   -0.39532301054443
O           0.77808007461653   -0.03428973668876   -0.70661346427900
O           2.21869600445623    0.56788072209537    1.11276757020155
O           2.87457417842755    1.08327686303234   -1.18586198835091
H           3.75917443675841    0.74687148902053   -1.29849014159078
H           1.31504271765525    1.87666897279346    0.74664790551247
O           0.71006910852738    2.51808483598061    0.30185075995750
H           1.02397544778232    2.52995756973828   -0.60666642101144
O          -1.28238012459216   -1.42679937623055    1.32513482251853
H          -1.66599478610599   -1.74495822313309    2.14419514440284
O          -2.71011641851642    0.52986317350936   -1.86921169381754
H          -3.60834476678201    0.22793128789389   -2.00967796792942
O          -1.18462031714653   -1.58020892699518   -1.54823385441461
H          -0.35043873784671   -1.08522177544166   -1.41598361373298
H          -1.40999663968413   -1.88218171931260   -0.66002847156014
H          -2.13240107937374   -0.28047530539160   -1.91895650888705
O           1.27691963300989   -1.82949943578785    1.73185948302418
H           1.63009724102598   -0.92563862132951    1.82491208407357
H          -0.30644605018039   -1.60544006770600    1.40623761793392
H           1.79634633909634   -2.18160975299753    0.99618185634444
N          -1.56455018924262    1.15449397174934    0.46482195264220
H          -0.63388400808030    1.66116446192600    0.33381891302743
H          -2.14906858801213    1.67176402341272    1.11354213106983
H          -2.03677513425637    1.04742678872107   -0.46918028935342
H          -1.37124013786687    0.19025169484515    0.81880901010069
