    26
        -50.45021843  Gyration_radius:  2.46507895713 Dipole_moment: 2.800
 S          -0.64551405632506   -1.68605563723957    1.07467015898466
O          -1.02048107508652   -0.72081354749568    2.08934720395057
O          -1.16243744175906   -1.34322029364312   -0.24574215688498
O           0.77992814116437   -1.94762439668748    1.05874193489469
O          -1.36232729569518   -3.04416924774627    1.45388906502157
H          -1.08259696705751   -3.18574119928750    2.35203356182113
H           1.23088434244149   -1.92992998433663   -0.60895181028485
O           1.25364730839667   -1.76055679479145   -1.56973642621064
H           0.34328239235433   -1.88577999627118   -1.85316579398413
O          -0.72921661691059    1.67859861105068   -2.62156157579203
H          -0.66318860381501    2.62152313823956   -2.78012441836035
O          -0.88012841286674    1.74019764886282    1.27687008733995
H          -1.00856513927424    0.88524939207294    1.75872097330836
O           1.46099134009458    0.89847437259476   -1.48872313189691
H           1.50229301298473   -0.07426273279261   -1.64360591675885
H           0.15897799928319    1.38217773109715   -2.26368415251019
H           1.54680180011406    1.00116983961417   -0.52919595736377
O          -2.16120989282612    0.89501465441241   -0.70248291945371
H          -1.70557499795511    1.38131518722220    0.10738750196906
H          -1.66017062440254    1.21850752937328   -1.55404238936234
H          -1.86214345919615   -0.08705573477930   -0.55263623137337
N           1.75734141256784    0.72888934153290    1.34806312000898
H           1.42675860813249   -0.23869335603621    1.31245519450353
H           0.07214382183267    1.75784076598186    1.09028405003671
H           1.65279815205764    1.02133568896937    2.31460714587287
H           2.75770629176338    0.69360903004361    1.17658290266121
