    26
        -50.45021793  Gyration_radius:  2.46510865213 Dipole_moment: 2.794
 S          -1.35312482591893   -1.18444679692267    1.08658538993473
O          -1.51588670303967    0.00066131460584    1.90560810155544
O          -1.50954685517541   -0.90926396715661   -0.33746849641790
O          -0.12515609997186   -1.89631932309179    1.38034643493440
O          -2.54883522676775   -2.15452992973667    1.44859059939469
H          -2.47084262562279   -2.24175446739760    2.39263800791104
H           0.55074749670958   -2.29728687724977   -0.15792674850023
O           0.77703719767676   -2.30241076739400   -1.10719560520640
H          -0.06494511815567   -2.16540130013315   -1.55115850434976
O           0.31766399329821    1.37852522688271   -2.86711968418566
H           0.73433228208367    2.20902981212542   -3.10223448737042
O          -0.39761939617349    2.11455090795204    0.89736467355979
H          -0.89051803506664    1.43861134337450    1.42631825950982
O           1.89314065479340    0.11690066524777   -1.25010398264285
H           0.97924600810557    0.86928931715903   -2.31228675866212
H           1.86148171962770    0.33983681789443   -0.30784880108061
H           1.61220643785977   -0.82697319927327   -1.29635358248501
O          -1.57430785278731    1.42782498882803   -1.20411210431324
H          -0.86720493711583    1.42747462762735   -1.96622657870970
H          -1.66673099544973    0.44000261934210   -0.90129941659160
H          -1.10667306310582    1.86193212044225   -0.37158154366943
N           1.67295418905762    0.32225480553714    1.59206785947447
H           0.51665967458957    1.78897405508363    0.90398744032213
H           2.61110122472779   -0.06505433593824    1.62728943310026
H           1.53114525662589    0.78418711768080    2.48488841654767
H           1.03367559918115   -0.47661477544508    1.58723165793072
