    26
        -50.44244551  Gyration_radius:  2.56250394905 Dipole_moment: 6.895
 S           0.57417133915447   -1.51580945003391   -2.16991290407303
O          -0.35604333083136   -0.71745894751109   -2.91564627436047
O           1.64778754304522   -2.13597826656951   -2.85125708810147
O           1.13729464586500   -0.60459613804973   -1.01546111819397
O          -0.19469411717007   -2.60143215356312   -1.36870583720415
H          -0.90471328379980   -2.15401438709167   -0.83683527571644
H           0.68386857078540    0.29279322711838   -1.16703761446982
O          -1.82736481383312   -1.46507777747310    0.31944387273723
H          -2.45633890094979   -2.10435489578310    0.65812807310128
O          -0.08664886364290    1.55180508632684   -1.58907169805662
H          -0.41885989625134    1.07180095737050   -2.36516543165772
O           0.21055946874131    1.70560617664590    2.15995304650313
H           0.14598280698484    2.51215958676112    2.67335869287326
O           1.98984164210763    2.06448288273759    0.17777790705334
H           1.38620296931230    2.25441789515609   -0.55494355457522
H           0.90980677353826    1.86604972482008    1.48468384277406
H           2.43680386827709    1.24790876424081   -0.06000123320910
O          -1.83955732562275    1.32759641467842    0.33656181734250
H          -1.22635942747798    1.44479825054517    1.08508562463782
H          -0.84027030415095    1.58121345170255   -0.93561496727692
H          -2.02730635026483    0.37807728400682    0.28616186642392
N           0.28424007118970   -1.21426098460895    1.82455018134009
H           0.96847301664197   -1.22862308348198    1.07513308509639
H          -1.06190397953489   -1.40661455763692    0.98811529442273
H           0.57527422014526   -1.87059104302232    2.53675109886651
H           0.28975366773921   -0.27989801725388    2.22394859357554
