    26
        -50.45553738  Gyration_radius:  2.4173324025 Dipole_moment: 9.595
 S          -2.03585209271802   -0.85420871208676    0.45613102032379
O          -2.32782351672742   -0.00211269812541   -0.68965741691773
O          -2.92420959477254   -1.95380121424317    0.64479825897272
O          -0.58862635073224   -1.51070358713139    0.10307180874010
O          -1.72089032240272   -0.08191452281596    1.65738795810053
H          -0.36573419535577   -0.59146962839343    2.30901695752488
H          -0.79221806116327   -2.12709399112329   -0.59309856616169
O           1.57356261829156   -1.49261809600641   -1.79947324644164
H           2.17978009818333   -1.47660306953620   -2.54137710830278
O           0.87148981868210    2.17315291747845   -0.37602474636184
H           1.23447683582240    3.05448367232006   -0.28274337855775
O           0.51869833940415   -0.97000715826507    2.56474285663846
H           0.37906722895630   -1.91895843692420    2.58171783955873
O          -0.23905455403265    0.33082312120418   -2.26647282040361
H           0.15222753091623    1.11055649891772   -1.85071858858726
H           0.82041168935234   -0.88676380748158   -2.04507238617812
H          -1.07241121634567    0.16779334077973   -1.76941788305686
O          -1.55217957973523    2.23128361728021    0.47521060247091
H          -2.03909963317252    1.75595480705090   -0.22072542957382
H          -1.58413530004614    1.56860797942169    1.19493964728650
H          -0.07491228314788    2.22917800485179   -0.01971084515318
N           1.93798656116473   -0.15054293800781    0.49685818999334
H           1.55756742138033    0.78555631408497    0.22096615191849
H           1.82080462653789   -0.79116731754002   -0.33018056435273
H           2.91384498030070   -0.07604075003015    0.76456397587696
H           1.35722896136182   -0.52338435568144    1.31526772264435
