    26
        -50.43330530  Gyration_radius:  2.8523678546 Dipole_moment: 4.863
 S          -2.17963391397141    0.94350300832529   -1.19820896359029
O          -1.89887448064691    1.46195082913523    0.10978959071445
O          -2.88145889637138    1.78931788836743   -2.09358696991378
O          -0.80949118912676    0.49614921238922   -1.83649312912296
O          -2.90601875177692   -0.41810127688539   -1.08375896556600
H          -2.27378348475040   -0.98842193482670   -0.57875504632124
H          -0.04891941438606    1.00169822112767   -1.42633116232718
O          -0.84800413586757   -1.71147085197063   -0.13956880410744
H          -0.45181857843209   -1.56001476473465   -1.00477973675989
O           2.62646506725241   -2.34566860292790    1.03126979193902
H           3.02082390228992   -2.57267043423009    1.87476924957054
O           1.20630749801357    1.76856563738828   -0.80457263706234
H           1.69532977736627    2.22529424693440   -1.49129626190636
O           0.87876271087530   -0.27707491655417    1.16898554308349
H           1.61145224891491   -0.92833582128143    1.14553182721136
H           1.12437691627806    0.43894362251930    0.57097180781379
H          -0.32095859988081   -1.12262673999254    0.48031355008212
O           0.48880220777161   -3.98665790132218    0.62498395998035
H           0.33890379791193   -4.65868333545657   -0.04118485476230
H           1.93708536722085   -3.01997621643997    0.86790902407675
H          -0.14550721186345   -3.26586035526372    0.44713748532284
N          -0.03603611131443    3.46889172663357    0.73870822914229
H           0.79297389165925    2.47798815680562   -0.20821357331416
H          -0.31537182054672    4.39527419817893    0.44200903461791
H          -0.86051467211058    2.86609022434380    0.69776065820217
H           0.25510785550113    3.52189615973968    1.70661032298636
