    26
        -50.43330518  Gyration_radius:  2.85268203307 Dipole_moment: 4.871
 S           0.79531757846083    2.38506389109181   -0.87566544302282
O          -0.36913070847523    1.83297138241515   -1.50626753241134
O           0.89586861777982    3.79814284767433   -0.82386617907285
O           0.87947997911441    1.78200733738036    0.57834396906134
O           2.07465965574188    1.79084673197003   -1.51210779527457
H           1.99033999109165    0.81607194104575   -1.36169350578553
H          -0.02702069569126    1.49777702988047    0.89425878069131
O           0.16469197304888   -3.42277613537829    1.31304869648125
H          -0.24845917759083   -4.25082099672182    1.06365745906497
O          -1.44409821327358    1.01670276213456    1.45160641984630
H          -1.65313683507659    1.46695689275887    2.27192124281617
O           1.72281381989031   -0.61320803615531   -0.56499604187154
H           1.87317551576696   -0.21264011964338    0.29838963961989
O           2.50844631733247   -3.19671011439038   -0.05898987347630
H           1.04680374603642   -3.42577664430171    0.89048661905937
H           2.31587082227301   -2.31054025365465   -0.42117844273814
H           3.41292051118351   -3.17688545490562    0.25630634536625
O          -0.74133855917341   -1.28768745685721   -0.09132728881819
H           0.74617806184966   -0.84764495468169   -0.56229731300070
H          -0.54237260542023   -2.06198204638656    0.47651669960901
H          -1.08840991025659   -0.59963246083214    0.48899190259947
N          -2.98604718238580    1.84899237587751   -0.48374836560010
H          -2.10739935213737    1.33964111317056    0.75474363426764
H          -3.42743413522973    2.75960515164988   -0.49814979520759
H          -2.16316414555032    1.89116800708862   -1.08860514815142
H          -3.62855506930969    1.18035720976109   -0.88937869405224
