    26
        -50.44131466  Gyration_radius:  2.6887055817 Dipole_moment: 5.680
 S          -0.43991226243773    2.31971493514084    1.40184707654894
O          -0.85877431089849    2.81820840589999    0.11796502059745
O           0.21115394238249    3.21756877625897    2.27884477034471
O          -1.64490889452934    1.67910448467320    2.13168659369299
O           0.47152476296796    1.07089817212830    1.13405669669056
H           0.64670408440871    0.98094191331821    0.13936079949191
H          -2.04236743943146    0.97948855112430    1.54316367566006
O           1.04438929672182   -3.15108749786232   -0.11528794250086
H           1.21433350706208   -3.95536887890818    0.37653000202094
O           0.98202981673377    0.81192647765533   -1.35432912886638
H           1.44799331826524    1.60342069934728   -1.62959899968003
O          -2.60470552861206   -0.13955124544181    0.53286258022335
H          -3.56320443359753   -0.16530800626433    0.53888019514042
O          -1.77407491518003    1.03522728284481   -1.60767534018800
H          -1.55746651918759    1.85653709048193   -1.11873483013074
H          -0.90913446336939    0.67940804310102   -1.85310914212445
H          -2.33354691311175    0.22753569916721   -0.36413928940166
O          -0.40242273852671   -1.57670888317969    1.53212925153851
H           0.48053302571365   -2.59752604787149    0.46670848010016
H           0.07681021833832   -0.74357911550738    1.62916979928730
H          -1.27629759497254   -1.32897701245954    1.20172021138079
N           2.65331525272505   -1.18006709982071   -1.41319727519700
H           1.64283694973044    0.03134026626889   -1.39931465276290
H           2.94906492598790   -1.48744797771697   -2.33103256854990
H           3.47936887422536   -1.04825758790024   -0.84309066587934
H           2.10675806859808   -1.93744144449984   -0.99541533744456
