    26
        -50.44131471  Gyration_radius:  2.68867412808 Dipole_moment: 5.677
 S          -2.15985950713529   -1.59247231919267    0.58081291824162
O          -2.18986144727825   -1.78281048586415   -0.84577118986554
O          -3.39393759223224   -1.56744493679299    1.27042799794307
O          -1.23578038954158   -2.65087167273455    1.22950596376032
O          -1.36470618970975   -0.26670671266008    0.84985196859487
H          -1.16620518950012    0.19832386588625   -0.02908490480524
H          -0.33695283972502   -2.59901648141102    0.80114915882351
O          -0.86721779406072    0.97349935954981   -1.32596743293468
H          -1.71161818456977    1.19174278134396   -1.72436588467112
O           1.08348846700014   -2.43170376213814    0.06507784671588
H           1.49387728554751   -3.28302120522986   -0.09700060357626
O           2.41098878946733    2.06497456351875    0.97815565433438
H           2.96533697643735    2.36052663874042    1.70133452060468
O           1.28011194473053   -0.23816555663866    1.81644703452342
H           1.47793207715748   -1.01441434971061    1.27566842445263
H           2.03526683663960    1.20504611149963    1.26528873813560
H           0.32228615380416   -0.12675265071102    1.75825691746559
O           0.10381848080304   -1.50036938628571   -2.13141908019629
H           0.81626465278416   -2.06662949789993   -0.83394301915598
H          -0.81121370904290   -1.72828850631095   -1.86421530704446
H           0.11693482365080   -0.53393694433812   -2.10399430759480
N           0.24372980725578    3.17972392854530   -0.51130362286324
H           0.57347973140508    3.80632070534246   -1.23449098428913
H          -0.31892653139889    3.71523162143489    0.13783115992283
H          -0.42995639797777    1.84919602438101   -1.02622816223262
H           1.06271975548591    2.83801884767676   -0.00202382428706
