    26
        -50.43331559  Gyration_radius:  2.83640219682 Dipole_moment: 4.675
 S          -2.56376508413045    0.68794392251105   -0.10346125067751
O          -1.92364669767546    0.73663094287744    1.17981592198503
O          -3.62172765889160    1.60340658936957   -0.33331978951059
O          -1.44820449588860    0.85930782394503   -1.20252126449919
O          -3.03737745090579   -0.75443648723248   -0.40255009623824
H          -2.20633297573460   -1.28972475316254   -0.36803781432027
H          -0.69406477542802    1.41992605719653   -0.85874927290107
O           0.54545178190366    2.29713954733323   -0.35764359127090
H           0.56528834657630    3.12487928987879   -0.84102807602487
O           3.08865339689853   -1.72017310422903   -0.86326464903433
H           3.42431949670922   -1.56301533126508   -1.74655997055085
O          -0.63305300283352   -1.75074889525311   -0.64569438897985
H          -0.59452878451137   -1.30006423111141   -1.49540844744024
O           1.20727950557674   -0.35121316627794    0.55241249880377
H           1.15872787826294    0.56223787105969    0.24904932516287
H          -0.01619269468867   -1.22804993021981   -0.05165847087892
H           2.00256635831934   -0.74645789414233    0.14503041231308
O           1.25678797127697   -3.72241834226002   -0.94876898746591
H           2.53392159435747   -2.52634420594023   -0.91855740442181
H           1.26005469127910   -4.31001949563254   -0.19162068173351
H           0.47141072417686   -3.15044219140959   -0.84826172253480
N          -0.14738890857128    2.69828703403836    2.12341970652152
H           0.50800714065866    2.38288376041605    2.82730541867791
H           0.32449715912851    2.52310097559937    0.60861068291888
H          -0.86573395799017    1.97730521987377    2.02860950292764
H          -0.59494956789732    3.54005899401797    2.46285240919020
