    26
        -50.46306762  Gyration_radius:  2.54499388519 Dipole_moment: 3.892
 S           1.28710789756286   -1.25847135694713   -1.35063669132487
O           2.32750546022355   -0.78735986088058   -0.43720521850806
O           0.03269930555670   -1.48962653535497   -0.66146074843055
O           1.15589730289906   -0.39001464764790   -2.50334526482310
O           1.76341368072809   -2.66457726448302   -1.89487668307244
H           2.42987009745714   -2.40605554835570   -2.52258207461572
H           0.51696304539232    1.14558508387973   -2.28764447548935
O          -3.15567131283550   -1.00251908973088    1.28121414787850
H          -3.57476491689980   -1.77786393396756    0.90613722189893
O           0.17523277106915    1.96151350393443   -1.85344085249072
H          -0.69069355604344    1.70930897242330   -1.49974296853249
O          -0.34592223687041    1.23573097697510    1.91647346492192
H          -0.93083142976812    1.72066531972415    2.49973279600886
O          -0.63408147052071   -1.63452100253212    1.96611596524763
H          -2.30100883295238   -1.31641055644985    1.66111168130840
H          -0.31535865381922   -1.76727773271635    1.05501008837233
H          -0.29802686536516   -0.76847033121702    2.22950115313306
O          -1.61447446645235    0.54104840467253   -0.27823366367651
H          -2.38452637289123    0.11380403834933    0.15422529087898
H          -0.88270079985354    1.01374481527359    1.10361232552969
H          -1.04153160200881   -0.21553325614900   -0.53436836495361
N           1.71586752492210    1.63152795457202    0.22774313951755
H           1.13255132535591    1.92719639189895   -0.62544204372210
H           1.08028267134429    1.58641357874230    1.04780012182061
H           2.05386231953453    0.63752740334287    0.00799125309351
H           2.49833910414682    2.25463466267952    0.39231041000958
