    26
        -50.43331555  Gyration_radius:  2.83653567954 Dipole_moment: 4.679
 S          -0.55115280242576    1.79490118018815    1.87967154105083
O          -1.46738507437871    1.69550037842528    0.77981311014751
O          -1.08381338038080    2.19721033875073    3.13051076020295
O           0.18022453062122    0.40682101025288    2.02135805089335
O           0.63957141911311    2.70478565940486    1.49417346360732
H           1.03516451717927    2.25793363991844    0.70538987603150
H          -0.41276110774893   -0.33980885051209    1.71783819413923
O           1.64491915697715    1.05288399854555   -0.26461939248317
H           1.94216132986031    0.52623475197048    0.48429356290200
O          -1.31075994829492   -1.57049684053940    1.23205164888246
H          -1.53933325693189   -2.11497529833778    1.98735996468718
O           1.99096205486431   -2.12613152271034   -2.18213351557381
H           2.53365672373533   -2.78516406419675   -1.74768153257926
O           3.34023604569690    0.22842313311126   -2.26400703375397
H           2.82606157025140    0.66886311869015   -1.55992329542452
H           2.55970727889901   -1.33713521716131   -2.30369492753270
H           3.20589048992450    0.74647696946558   -3.05908865772660
O          -0.08183246847381   -0.65511360723892   -1.20367965372751
H           0.89110027831161    0.52504009934909   -0.66433803167377
H           0.52988978529391   -1.28868319889157   -1.62682439242115
H          -0.50299940082717   -1.11611332567149   -0.46960218107706
N          -3.40600897300727   -0.29263515113975    0.35256979011991
H          -4.26022801498151   -0.16464436731261    0.87987303130946
H          -3.65314842515172   -0.45205554424600   -0.61593372706744
H          -2.87761326249797    0.58139465199149    0.39415161291182
H          -2.17250905564566   -1.14351194209601    0.90247171415215
