    26
        -50.44112158  Gyration_radius:  2.58350499454 Dipole_moment: 4.744
 S          -0.20048311239744    1.72258056461905    1.99172100805450
O           1.08245640477067    2.05676733237711    1.42995215681240
O          -0.43107100756587    2.03970375441655    3.36358419520870
O          -1.29852286025330    2.57161018349692    1.16898146449903
O          -0.55019081448522    0.31771705755688    1.64332296454225
H          -1.49650133158488    0.14531663106675    0.30263386526066
H          -1.79258737166024    2.95479193702189    1.88614223691844
O           0.00909108288208   -3.29526822384257    0.27553547242124
H           0.50895800534562   -4.07294186692301    0.02370824817497
O           1.80690482511246   -0.37223977911850   -1.34305862727704
H           2.71699354965525   -0.08228646916342   -1.41871855066709
O          -1.99574079531932    0.00865877782059   -0.53591053097012
H          -2.89459766623481   -0.20143316228222   -0.27962709968607
O          -0.54870629815167   -1.87595094352856   -1.83495892103355
H          -0.31242632248075   -2.86929458724532   -0.56974073973440
H          -1.15033764466175   -1.19358304909864   -1.47182246664902
H           0.29126506189571   -1.42308272424007   -1.98313082540502
O           1.27904487713989   -1.20857230139089    0.99427659930499
H           0.78440963599066   -2.09483188830170    0.82430029086399
H           1.54834345535738   -0.85456169139124    0.05361562626222
H           0.53724581291081   -0.53347911324979    1.34383485232097
N           0.37105705382957    1.72820903276029   -1.21198492877345
H           0.51560666071946    2.52203920774233   -1.82169474960655
H           1.22362340687285    0.50237129984007   -1.35774198845145
H           0.61329553260703    2.00711939152997   -0.25588038479315
H          -0.61713012028874    1.50064062953550   -1.21733916758571
