    26
        -50.45667192  Gyration_radius:  2.56014908532 Dipole_moment: 5.745
 S           2.22490329284572   -1.33367989820740   -0.71068267780668
O           1.26621447635560   -0.55354454163461   -1.49547321469041
O           3.44259944652013   -1.65014681919888   -1.37872852598021
O           2.64434446852148   -0.33966008381191    0.50482713898510
O           1.54417608349198   -2.43642989507361   -0.03757872499332
H          -0.30404527474097   -0.83786225385660   -1.75507023658346
H           3.52524720512650   -0.10892525882509    0.22945091798972
O          -1.27839694533433   -1.02490306462121   -1.73014132100916
H          -1.44287038013995   -1.67503236926410   -2.41367225105602
O          -2.02005217070140    1.58169756209826   -1.06353915068815
H          -1.94884739577907    0.71002672987103   -1.47721483902052
O           0.47608563975416    1.04488888145507    1.68399226539090
H           1.37514174853023    0.75648368825362    1.86744548122091
O           0.63241752876843    1.94324745889620   -0.71598518191684
H           0.96586371358759    1.12228681434604   -1.12510382716336
H          -0.31265539390328    2.00056999555742   -0.97619501287505
H           0.55228279304037    1.50657670555817    0.78481740102489
O          -2.30048659184399    1.14610154326018    1.69249930865021
H          -1.36552448941250    1.29608440352606    1.89773460764680
H          -2.78535222850036    1.87859852029066    2.07512134484598
H          -2.27192865176327    1.41834895292321   -0.13980700817134
N          -0.54635974639763   -1.29395841489142    0.87575565318478
H          -1.07453911652114   -1.77900110380630    1.59342656452843
H          -1.11662569460793   -1.16656467193300    0.02101272491897
H          -0.21267171257654   -0.35473121929588    1.23030671543130
H           0.33107938574427   -1.85047166157617    0.56280183822408
