    26
        -50.45667197  Gyration_radius:  2.55999750407 Dipole_moment: 5.748
 S          -0.79799857689719   -2.39115439207161    0.93677679973508
O          -0.46292109084596   -1.93823059453710   -0.41460731413979
O          -0.89648652013342   -3.80312689398834    1.09742045682209
O           0.48066514516031   -1.94198004646235    1.83384285509757
O          -1.89689080483684   -1.59481935405800    1.47607868636930
H          -1.20184658234675   -0.82361983718165   -1.32298145695956
H           0.88371826087759   -2.79135707658069    1.97887624554561
O           1.43134754846403    0.66717337073316    1.28880029306649
H           1.43325747863077   -0.00873366057183    1.97318886205152
O          -1.63566194222357   -0.03028187197753   -1.73221949451565
H          -2.42380386266008   -0.35336216340898   -2.16972345781198
O           0.75394272152617    1.27283233244243   -2.35077272220091
H          -0.12822693105311    0.87742758648471   -2.38768894561720
O           0.78341303502499    2.97262023437146   -0.12016189845412
H           0.70505716406608    1.97040364408375   -1.67667587311889
H           1.21493312816138    2.33430393787954    0.46731561599881
H           1.41662314772829    3.67546420618376   -0.27253757489516
O           1.87285125090311   -0.67557372256686   -0.85450024183903
H           1.62457698373778   -0.03349554340000   -1.55473401232760
H           1.71984137422490    0.16516311583767    0.45678490312227
H           1.10979536312928   -1.27840364523445   -0.77185152517553
N          -1.20440463380246    0.77424651825840    0.82972920706483
H          -1.55459274467085   -0.19040457298348    1.18199746660105
H          -1.66920116227820    1.54666052635487    1.29517496687351
H          -0.16097714004935    0.81107544126609    1.00005510448232
H          -1.39701061984179    0.78717246112504   -0.18758694578947
