    26
        -50.46103461  Gyration_radius:  2.72985573654 Dipole_moment: 2.741
 S           0.90949797529033    1.99389629964714   -1.21753712412743
O          -0.50879001106537    1.96218654468300   -0.88989466998752
O           1.73978169644336    1.61371276066620   -0.09074456009445
O           1.18746737082931    1.22604876074236   -2.42346502541158
O           1.27870103634726    3.49567282255174   -1.56473919531493
H           0.91492871020915    3.59615964880203   -2.43875463182389
H           1.07966166459791   -0.36126014590295   -2.29511665225487
O           0.94996819016114   -1.33474566505207   -2.13241103129841
H           1.55282222827162   -1.78332814783431   -2.72660622792442
O          -1.83300960065225    0.21467006182845    0.64839643238203
H          -1.49290181718240    1.08501362504031    0.36596830281299
O           0.95950999384562   -1.84132986484011    2.94949230642785
H           1.50405002026284   -1.41366855265263    3.61216002451669
O          -1.57013877055117   -0.90026151207825    3.16706973696344
H          -1.75335064609925   -0.40137007818840    2.35248983154931
H          -2.33908815694207   -1.44974483070778    3.32572505380207
H           0.03522717510300   -1.57777161361826    3.14242023054060
O          -1.70573592187594   -0.26898736700028   -1.97527570168435
H          -2.14956319773257   -0.16638843634528   -0.19577251950203
H          -1.31103083534276    0.61318969823157   -1.86450064539735
H          -0.97534519555197   -0.84365294822082   -2.23420446848649
N           0.71760304564107   -0.71338836638920    0.50483694393990
H           1.23477079167086    0.20208011906613    0.39231256808135
H           1.01113777534195   -1.23292552630202    1.35844781921382
H          -0.29602138441859   -0.46701512788561    0.59853344276327
H           0.85984787341245   -1.24679216823134   -0.36883023974062
