    26
        -50.46103462  Gyration_radius:  2.7300732046 Dipole_moment: 2.743
 S          -0.44202682837318    2.25106669920565    1.01322484509713
O          -1.15535699031640    1.09506419193394    1.53745779403807
O           0.97586461012585    1.99196855595424    0.85212773130088
O          -1.07700662940632    2.75596850086138   -0.19628308643810
O          -0.57058902372834    3.40979428594718    2.08699970295615
H          -1.46620988856161    3.70594180492861    1.95855603772518
H          -0.92640977705968    1.85483737326617   -1.50487324903657
O          -0.77765180671751   -1.49911022278305    0.98643967672346
H          -0.82621189569169   -0.69709878088704    1.54073201733846
O          -0.81522199614447    1.21197549682257   -2.25681143662142
H          -0.80733723947874    1.74063501407633   -3.05565427805908
O           2.96061963166269   -1.90039941137348   -0.79529681681733
H           3.77993765155092   -1.70752787956726   -0.33694781708786
O          -2.57756205640587   -0.15838817305462   -0.46044585763610
H          -1.57932198019593   -1.41428825273300    0.43113248894022
H          -2.30175096025952    0.46448317045905    0.23405037815367
H          -2.22809303715501    0.20638281391216   -1.28239877385713
O           1.33640657132360   -3.28015881807553    0.87504951113375
H           0.97786603038170   -4.14794296468104    0.68308354808687
H           2.45661471858381   -2.50660057991830   -0.21256639577068
H           0.57513981384342   -2.70437152900904    1.06214433502867
N           0.91336593415833   -0.14100954709875   -0.65175409071681
H           0.27845531801658   -0.75932213509835   -0.09362591403044
H           1.77988489524925   -0.67387821993510   -0.87521910408194
H           0.41140493347173    0.19561880098952   -1.49009732993172
H           1.10518999112353    0.70635978587811   -0.04902389644378
