    26
        -50.46365780  Gyration_radius:  2.4472229772 Dipole_moment: 8.569
 S          -2.38764316421872    0.12926140958513    0.45222017645574
O          -1.41450180712237    0.77343191723979    1.32644236373108
O          -3.63605674966651   -0.18804400348828    1.06124149587316
O          -2.71592248436810    1.21587667393674   -0.69151276601580
O          -1.75397702244038   -0.96034382046338   -0.29569407839335
H          -0.96078999363526   -0.23964978072139   -1.43435782149737
H          -3.53115940574092    1.55552211296795   -0.34184701362749
O           0.27264579279528   -2.39829681075540    0.61550554466704
H          -0.59674553827688   -2.06120758980306    0.30986361012955
O          -0.38037003514080    0.19521434353082   -2.12183778705722
H          -0.96589292335493    0.41309377859638   -2.84782286322823
O           2.42433058148398    0.93501155978954    0.62018398437664
H           3.11813507389825    1.57621505727172    0.77373356639753
O           0.69298643938308   -0.51243359357778    2.38807694116911
H          -0.12725898394926   -0.02711842825006    2.17131653011136
H           0.45550275365831   -1.86941028083393    1.43599035524624
H           1.40990573312803    0.01246516910918    2.00609032451250
O           0.26037210219368    2.08402595180164   -0.19586066904235
H          -0.40356214403368    1.72661542718667    0.43747925176285
H           1.60935277438334    1.45786358033602    0.34186370387758
H           0.04038942889822    1.65178433420985   -1.03616742898517
N           1.74651912998309   -1.09624718313574   -1.01995764044712
H           2.19307871456171   -0.36206937123750   -0.43136473318886
H           1.06102275230375   -0.63932690506824   -1.64654647771797
H           2.43411067109732   -1.62490234305737   -1.54365235854124
H           1.15552829421348   -1.74733120515604   -0.33338622055239
