    26
        -50.46824524  Gyration_radius:  2.53307141091 Dipole_moment: 2.068
 S          -0.83425732877806    1.29105248886434    1.20042084837296
O           0.25430296013232    2.09473955614579    0.65716377752591
O          -1.44958853430621    0.44446591120099    0.19644521016574
O          -0.42582342182925    0.56230770381417    2.38513058989059
O          -1.95927624882543    2.30923964331719    1.65554915195863
H          -1.55498558868178    2.77907314997839    2.37851882811345
H          -0.39392338941505   -1.13457779231483    2.52004998473525
O           0.80011889519343    1.69562756691877   -1.92766287814131
H           0.59118273052082    1.85605974002702   -0.98467185010259
O          -0.36262363515798   -2.11203995567121    2.44536233010998
H          -1.17502411721730   -2.43379817177428    2.83743610604250
O           0.33656972455303   -2.07376900899800   -2.59701480590494
H           1.05259463104698   -1.81347426329885   -3.17875819766839
O          -1.25318192469258    0.04105580873394   -2.56657891185421
H          -0.36158062397793   -1.37612476160693   -2.70134448486529
H          -1.67520558581741    0.11882650841217   -1.70059788409518
H          -0.52446494779675    0.68934339509242   -2.52705593562134
O           2.14802777404862    0.29055241640753    1.17168111008295
H           1.03653105179473    2.54869889230002   -2.29389498333796
H           1.60537420407283    1.07764293281239    0.96967327211684
H           1.95700296332474    0.09063844072172    2.09250990542067
N           0.45355008644422   -1.41369816149220   -0.02059503381653
H          -0.34405567406557   -0.73595406555156   -0.02833304850360
H           0.23955106296698   -2.09683125990017    0.72207612890964
H           0.54254990544317   -1.83048507877228   -0.98100780366777
H           1.29663501101830   -0.86857164535335    0.27549854415601
