    26
        -50.46824530  Gyration_radius:  2.53281468573 Dipole_moment: 2.044
 S           0.78299617133978   -1.21525050052876   -1.31344388898463
O          -0.06890284183091   -0.40482691080754   -2.17595566428365
O           1.44096783790466   -0.42766693426712   -0.28879935994667
O           0.07359833949333   -2.36135230713579   -0.78019044383363
O           1.94170193140260   -1.78026383289321   -2.23414461140936
H           1.48293329051797   -2.34486624785696   -2.84868506583447
H          -0.22278015896926   -2.64160397602724    0.87225232069842
O          -0.37960291586200   -2.65127681450023    1.84044160854612
H           0.29510814310241   -3.22021711526067    2.21232219748993
O          -0.15076708348628    2.40984039566648    2.31089292937621
H          -0.70681782898334    3.14281580302921    2.04191487515702
O          -0.21036519127492    2.18466685410573   -1.53365432499168
H          -0.14549032944771    1.23975948269652   -1.78159357931432
O          -2.25747750516052   -0.71041242980981   -0.68401594270002
H          -1.58312830377818   -0.54571835083365   -1.37160174203927
H          -2.26080649603685   -1.66478246592768   -0.56754959452251
H          -0.27285373189613    2.66953321879827   -2.35756701310631
O           1.68294210336077    2.27328133084439    0.40818834066124
H           1.05287227742522    2.43066364324699   -0.32047941644152
H           0.64382128779036    2.44306940817568    1.71715379387385
H           1.95363492937526    1.35423061809771    0.28146381445544
N          -0.63479251000814   -0.02117210932211    1.33843511134411
H          -0.65443452014864   -0.85147042898009    1.95037334677208
H          -0.60861507928549    0.89499404162899    1.85196641421298
H           0.23846745513273   -0.10371375061960    0.76731720459072
H          -1.43220930072445   -0.09826064152486    0.66495868022352
