    26
        -50.46373135  Gyration_radius:  2.44840854523 Dipole_moment: 3.678
 S           1.89842162870744    0.53698562211226   -0.15980444203360
O           2.93380929828499   -0.15444521048842    0.54428039903276
O           1.14064378948076   -0.33459065021815   -1.06542637065096
O           0.99680823391899    1.33409893939328    0.65413031138536
O           2.62317034870114    1.59630225147918   -1.12219484171783
H           3.52640534253586    1.29561930301311   -1.13167940271816
H           0.26305744998473    2.37321927404432   -0.44347776767486
O          -2.43971197228503    0.00424412346814    1.20221780104403
H          -2.80878671270842    0.77316693314403    1.63865873440399
O           1.03817708634475   -2.32252270319345    0.68571068694613
H           1.92909144506712   -2.40479148738142    1.03555022863760
O          -0.16429316545564    2.75196439864344   -1.24221744560987
H           0.55959766790837    2.92810058743198   -1.84644658830730
O          -0.13411618912700   -0.46231336400276    2.29714925387916
H           0.23858076718203   -1.26654059505565    1.88792947019261
H           0.34932148679764    0.27697074443716    1.88651361614246
H          -1.59958930286576   -0.21416400804877    1.70294729327042
O          -1.68360861132845   -2.28430659975913   -0.49797910529984
H           1.12227067216686   -1.68825375647116   -0.05292403574352
H          -0.83698626459287   -2.59239195192927   -0.15850719251017
H          -2.18440339485312   -1.98453389472324    0.26588694199821
N          -1.37967398794192    0.37378036992546   -1.23325518045439
H          -1.91533223702704   -0.10504806198412   -1.95081930878668
H          -0.41236705940157   -0.05229816002100   -1.17880375718942
H          -1.21107531366090    1.38390496478617   -1.42109919823560
H          -1.84941102582770    0.23784291143532   -0.29634011998738
