    26
        -50.45388695  Gyration_radius:  2.70455068213 Dipole_moment: 3.717
 S           0.34401017790730    1.50946550718341   -1.91214495732640
O           0.25975067651389    1.93261520376666   -0.52020550762349
O          -0.27908728172825    2.37880896567829   -2.85523100107964
O           1.91476062133222    1.53084970559313   -2.27282770470840
O          -0.01533325316902    0.09081072978239   -2.02722049912013
H           1.47657816433302   -0.76864023888720   -1.84979859238196
H           1.94360485771566    2.33597906789057   -2.77627367353632
O          -0.30070469667139    0.98103154330761    1.87276310257762
H          -0.26027561737667    1.49614023084568    1.03622903272887
O           2.25055523667107   -1.24805410718687   -1.49308260436471
H           2.98423437816475   -1.00525633369831   -2.05953629331176
O          -2.58555021518829   -2.25824854180669    0.84346303791509
H          -3.26112660078015   -2.21146699280936    0.16489265475624
O          -2.79740782608851   -0.08249823630669    2.41486145112178
H          -2.94768515659841   -0.06236887538456    3.36101915336893
H          -1.97967537378859    0.41705046896865    2.25283042452909
H          -2.77857062002770   -1.53186711897109    1.47409376885971
O           2.19078977870113    0.45420444674206    0.71371410781304
H           2.48401343388784   -0.18885076853490    0.05150876931674
H           1.69546925351971    1.11790307408376    0.20693855842968
H           0.59666026912364    1.03231384537074    2.22174424986630
N          -0.18659805068344   -1.20659739746610    0.23956515419226
H          -0.12212898981192   -0.46669146348793    0.97632975433691
H          -1.05641781251955   -1.76855090961829    0.39229393432169
H          -0.22435632348136   -0.69777513659538   -0.69215438331628
H           0.65449097002888   -1.78030667846053    0.23622804263147
