    26
        -50.45388696  Gyration_radius:  2.70451356462 Dipole_moment: 3.712
 S          -0.69835669218459   -2.16514717219923   -0.93513372905397
O          -1.56356523580026   -1.00137760816387   -0.79127646532210
O          -1.31327966510689   -3.42253955851890   -0.66274984113542
O          -0.29236431935015   -2.20851474273143   -2.49425896097185
O           0.57995858293389   -1.92640977079977   -0.25398149301226
H           1.60651190719460   -1.22184313163243   -1.45590993982429
H          -0.86592778981542   -2.90993686038901   -2.77989544937104
O           2.08271665579031   -0.59885065519818   -2.04010051759737
H           2.18539765920240   -1.05935073958218   -2.87410200529033
O           1.30572487876362    0.95194053543485    3.14451341229143
H           1.35575402388487    0.17208799013819    3.69988359101270
O          -1.58144875057267    1.40862638360381    0.27563648501779
H          -1.77383690912979    0.48257104197284    0.00692699359487
O          -1.26480521401154    1.74064927954041    3.00491518193777
H           0.38879360796463    1.29069298880552    3.22845260553424
H          -1.62650068791395    2.59024187885169    3.26113120110852
H          -1.51307582203161    1.60204518697867    2.07558066580685
O          -0.22549915543975    0.96036046317765   -2.13130691897577
H           0.64333079266829    0.58418014501033   -2.33568845921383
H          -0.76941741085289    0.19625956330372   -1.88045784752123
H          -1.56959388072800    1.89505237048998   -0.55678357109027
N           0.99993279289344    0.54311378139415    0.50518191274714
H           1.69468768038448    0.87083317770101   -0.16297554228176
H           1.29974419092071    0.68240249185112    1.49829127574891
H           0.08604699309076    1.02860745439315    0.35115611798310
H           0.82907170730749   -0.48569446356089    0.30295131790892
