    26
        -50.46648433  Gyration_radius:  2.45903616464 Dipole_moment: 1.134
 S           1.69213892343757    0.41688545447086    0.16354406075011
O           1.27779509917155   -0.06078390773184   -1.14950073599318
O           2.42549831355719   -0.55150785655330    0.93126645970006
O           2.70852144095713    1.62114996708807   -0.10653435926977
O           0.56656844640439    1.01256403819757    0.87281053445065
H           0.33551719779826    2.46126858620589   -0.04398906102393
H           3.53846486187053    1.27601591396845    0.20774318587125
O          -2.38326186283919   -1.06152249665729    2.28440306404171
H          -2.44411430887299   -0.68273376804675    3.16176509557775
O          -0.06481746821565   -2.30927099396948   -1.08530086894683
H           0.56804914467167   -1.55747230775635   -1.15810226707003
O           0.25595788794971    3.11621999107274   -0.76074024218839
H           1.15786924624504    3.33320046972922   -1.00443839809626
O           0.18702775880702   -1.88673386435593    1.70316430821536
H           0.15062487938653   -2.47522626582102    0.94114768911214
H           1.02859651056634   -1.40877604792107    1.61902449117133
H          -1.47625803307083   -1.41492759809491    2.20718528158809
O          -0.94291957097259    1.18523879149634   -2.24611864713278
H          -0.10276496662121   -2.71788096177929   -1.95157303395583
H          -0.73699885573338    2.07367458991310   -1.90104201243765
H          -0.10299902412574    0.70665791929903   -2.14179690890626
N          -1.56921750785294   -0.21579500912104   -0.11260589162850
H          -2.34444205110112   -0.32924548002897    0.55299787052672
H          -1.23389075986031   -1.14750119193709   -0.41879966539505
H          -1.71825974308963    0.37617976964941   -0.96720475938689
H          -0.77268556858290    0.24032224868846    0.40269485043510
