    26
        -50.46846772  Gyration_radius:  2.39949210492 Dipole_moment: 5.640
 S          -1.31397121569445   -1.03379818851973   -0.71835753261960
O           0.08164621133265   -1.45091576437581   -0.99837872776843
O          -2.14894593064913   -2.15271642769288   -0.37438428890303
O          -1.30594701276138   -0.00668074521783    0.31716280238016
O          -1.84698219422191   -0.37878915842859   -2.02825783826068
H          -1.33585083366755    0.45854989587698   -2.14042018738302
H          -2.01040289582767   -1.09312391176878    2.35202478098578
O          -1.58994448216984   -1.94611002164951    2.20663209611366
H          -1.88569311763373   -2.19789793925198    1.30084958757912
O          -0.29737381570922    1.76236051570812   -2.35364689914370
H          -0.26176968842055    1.94717782566382   -3.29375490690449
O           1.84795170394478    1.12401226876954    1.24334985617263
H           2.31405089614027    1.67181428735719    1.87602787003475
O           1.81820774017378    0.46028600363037   -1.55050740757420
H           2.05791561567577    0.72768108490306   -0.65260986625280
H           1.26493555777713   -0.34445487437291   -1.44486615132196
H           0.57488079209050    1.33888572445352   -2.11530069091553
O          -0.27486092812714    2.38114051409794    0.42652866834764
H          -0.80092115082574    1.54959189722340    0.45445720599994
H          -0.26466690354760    2.61343794751129   -0.50938391533831
H           1.04574495516281    1.65597492366514    0.95738855419227
N           0.89327012210923   -1.42350706196571    1.43985031936965
H           1.23275078507734   -0.44464130544233    1.55463599561363
H           0.66147657317896   -1.53349586643962    0.39590361081633
H           1.58905009893490   -2.09719147835627    1.74259625496216
H          -0.04455088234083   -1.58759015537233    1.91246078982559
