    26
        -50.46978699  Gyration_radius:  2.50707296172 Dipole_moment: 2.218
 S          -2.07827622056128   -0.01927578583010   -0.54499035288417
O          -1.55610959631914    1.18789907725888   -1.16333319655356
O          -2.49619261569832    0.18840117000192    0.82385629168529
O          -3.37756332922316   -0.42297808583491   -1.35563914519007
O          -1.17023357034108   -1.15273225562218   -0.68862505148774
H          -0.11090876338284   -0.68779838633721   -1.99035032630629
H          -4.02723976314675    0.17853646341568   -1.00769769803686
O           2.81704301953936   -1.45239874908597    0.44654432755318
H           3.06476642341438   -2.07632300207377   -0.23770707571700
O           0.41513175415654   -0.12635901414484   -2.58701871634255
H          -0.12451063000759    0.66584276585505   -2.67984267178162
O          -0.46679049574686    0.65140441363894    2.46542632279059
H          -1.34274526980880    0.53798804070681    2.03872199147742
O           2.32013814249371    0.73019258357047   -0.87502407763823
H           1.75058552958438    0.40560049194176   -1.60601720376792
H           1.75105304312502    1.32131030383924   -0.35664475123975
H           2.73260667869421   -0.56976722660271   -0.01757294479852
O           0.30711580050000    2.19934548452722    0.35363219323468
H          -0.02885903118016    1.33132311580566    1.92442067227501
H           0.26972043463191    3.15366732106239    0.27048415586078
H          -0.40929992859693    1.84317963641929   -0.22943090066225
N           0.35976703933702   -1.60021681321591    1.41584205038976
H           0.14283844017442   -0.71875537930811    1.98213419122315
H           1.36932561955257   -1.59258261268388    1.08869333797051
H           0.15654059251959   -2.43345421817161    1.95661193546355
H          -0.26790330368524   -1.54204934914107    0.57352663246930
