    26
        -50.44342647  Gyration_radius:  2.65572698915 Dipole_moment: 8.920
 S          -0.02922693079891    2.79976641502143    0.62685138355052
O           1.13877923620263    3.10117358954430    1.39892225806029
O          -1.09129033495358    3.75225802252311    0.62814019487609
O           0.48323051306415    2.71065446020072   -0.93242065931889
O          -0.49307163013834    1.40389589846727    0.82376798053965
H           1.19753295058702    0.99592449132623    0.89250459280080
H           0.86179930913996    3.57664011011843   -1.04365108312470
O          -1.35595527834917   -1.05526566229237    1.68679350752653
H          -1.16542780167591   -0.10847135931361    1.61456753874139
O           2.06447328154033    0.56147662842846    0.81970817978425
H           2.66181202786162    1.16909700636869    1.26140111093426
O           0.70402494605496   -2.13486929979004   -1.21760333456813
H           1.53536206610139   -2.34640121875906   -1.64297150875155
O           1.15164225366680   -1.94076430847161    1.27971418106226
H           0.90580399077005   -2.13009550930922   -0.21361960424328
H           1.63330623808098   -1.09060295960708    1.26647531733449
H           0.25766791694837   -1.72168111718536    1.62329467942847
O          -2.08177518782876   -2.06022936711155   -0.90904514491296
H          -2.63484613783287   -2.82373514978157   -0.73723215766429
H          -1.79628716701511   -1.30380408734979    0.86188711752796
H          -1.17923803532078   -2.39098814144878   -1.03741672928978
N          -0.55770909524369    0.20502549467798   -1.43760906074224
H          -0.23048902162712    0.89924159491035   -2.10476170913051
H          -0.55724647850320    0.69762424434259   -0.47068600726803
H          -1.50034313091313   -0.12648495856643   -1.64269921717350
H           0.07747151012948   -0.63938479697686   -1.39431182593524
