    26
        -50.44342647  Gyration_radius:  2.65558616182 Dipole_moment: 8.920
 S          -2.74408183662204    0.79286263644695   -0.26677744811539
O          -3.05490561155984    0.88089328472412   -1.66207754245448
O          -3.63520124450631    1.42032812331984    0.65388988274307
O          -2.79011137167206   -0.80980555258531    0.09555080137909
O          -1.31484231096649    1.07742366763511    0.01372976981406
H          -0.99612364761086    0.23422667881565   -1.47509478379266
H          -3.68129877545325   -1.02365266501918   -0.16094642143597
O           2.00596558135232   -1.58530849263446    0.00121473229479
H           2.14292453762937   -2.39324568208194   -0.49405837948246
O          -0.61534144033110   -0.30980147820638   -2.18553650373653
H          -1.22214955892027   -0.18505583713567   -2.91862162300108
O           1.24031764521228    2.04488975109512    0.28029488551028
H           0.28182295622255    1.96750185617620    0.16494678042149
O           2.10205616118199    0.11352524828926    2.22960142448123
H           1.45524950009678    1.54406116406252    1.07981145836044
H           2.37463396759299   -0.48746455591570    1.51895341857838
H           2.90399010704201    0.47863834933952    2.60641482004403
O           1.95817543516392    0.33440574841480   -1.66803936354267
H           2.05862284928366   -0.83079480449501   -0.68932501325803
H           1.08413699793750    0.14955196301050   -2.06418705018701
H           1.81183099848945    1.10537357638168   -1.07684428206421
N          -0.27257622141626   -0.92544000840356    1.22110290774966
H          -0.69673243409506   -0.05678921166735    0.72800397721402
H          -1.02750286453031   -1.60323212136566    1.29058196005136
H           0.53802121397850   -1.28645389917275    0.64580872444032
H           0.09311937645004   -0.64663773904460    2.13160284795162
