    26
        -50.46172221  Gyration_radius:  2.51990470672 Dipole_moment: 6.740
 S           0.73674959379733   -1.58214112650808   -1.41484702635141
O           1.10132377958544   -1.35763884172114    0.00065187108452
O           0.33809466126005   -2.92984876339551   -1.67478853094151
O          -0.26462978130831   -0.59598736134433   -1.82072928929043
O           2.04842512022522   -1.26789932893485   -2.23051787496653
H           2.35290091727196   -0.40984145530618   -1.93284718860464
H          -1.77376912771520   -1.46343692606945   -1.48427078920020
O           2.23835092389279    1.03166254057702   -0.04423738325337
H           1.92380813885313    0.11092805125475    0.05171788818870
O          -1.38849429070314    1.64350483287816    1.13122764566829
H          -2.22264624948665    2.10733617165689    1.04939829503320
O          -2.18302531938008   -2.16682503703537   -0.94392033027174
H          -1.60717046267491   -2.92159741272112   -1.13554668823870
O           1.14105718320561    2.06387270569923    2.29527514834925
H           2.12957685009148    1.40978512958737    0.84514138893524
H           1.26977793509311    3.00342979346183    2.43389896027099
H           0.21830733327172    1.94663719593302    2.01959151296699
O          -0.08349451785958    1.91216330799867   -1.04859973494803
H          -0.90065544238915    1.79143292038137    0.24667481414726
H           0.85043665885586    1.82354539917397   -0.75691240958130
H          -0.25904806850856    1.05473715925955   -1.49049350335726
N          -1.15295387839856   -1.04086338632926    1.21242713911691
H          -0.15759116419676   -1.17291834897731    0.83855576930242
H          -1.75466130686162   -1.51622187534470    0.47997135161054
H          -1.25646824520243   -1.46341278606156    2.12870896230260
H          -1.34420124061919   -0.01040255815882    1.24447001202778
