    26
        -50.45332208  Gyration_radius:  2.73178897491 Dipole_moment: 4.591
 S          -1.07117915349889   -2.27748038076418   -1.34049385225030
O          -0.17533310607151   -3.34938979755876   -0.98330743547890
O          -1.95494734744307   -1.89634234833593   -0.23530137362218
O          -0.38718683730809   -1.11165904526552   -1.89142460012845
O          -2.01131515682897   -2.81921297767432   -2.50293490427691
H          -2.19774544993190   -3.71674843356409   -2.24178686138926
H           1.10343379590176   -1.29471855030504   -1.07671413337656
O           1.68750309283095   -1.49341296375764   -0.31216856246886
H           1.61403137415105   -2.45349245301832   -0.24890062247140
O          -0.27509866423319    1.43244673432220   -1.06338628425848
H          -0.41781674557985    0.63289924556119   -1.60647196822570
O           0.91816309205845    1.77730704763109    2.33626126156534
H           1.41745430351430    2.37025528425661    2.89908252198594
O           2.23032036534277    1.30022273027053   -0.12050820891664
H           2.42799100218421    0.36071437074981   -0.21210076738272
H           0.69982931657294    1.53076270009644   -0.98302572209234
H           1.94707019513970    1.43546417341135    0.79912905253668
O          -1.08752352003213    3.03681976142112    0.99121129821929
H          -2.04170473942101    3.10133844216481    1.04704702377174
H           0.20961988985018    2.31827059787517    1.93551343624494
H          -0.88413731839005    2.68109056939549    0.10926449639909
N          -0.35773346228769   -0.30833275253498    0.98422089903290
H           0.54489938468046   -0.78550553180201    0.76128394917547
H          -1.13101809785487   -0.97565718995680    0.65991298305856
H          -0.39529565273286   -0.01754999752280    1.95751230459971
H          -0.41228055052479    0.52191076498056    0.33808607989996
