    26
        -50.46172238  Gyration_radius:  2.51993411347 Dipole_moment: 6.735
 S           0.64489748481609   -0.13088300770314   -2.14867485442803
O           1.10787275669753    0.79650154024138   -1.09400163826520
O           1.72307839306928   -0.79586745246367   -2.81069459206385
O          -0.34265453953897   -1.05194379676298   -1.58629129502324
O          -0.11432356259378    0.77794274476066   -3.18899644631256
H          -0.74130648765752    1.29883178073098   -2.68592163246383
H           0.68141273349012   -2.41547950953102   -1.09445425573484
O           1.58581782152644   -2.67297168669554   -0.83021462190899
H           2.10974007184146   -2.33769912679416   -1.57273769196168
O          -1.07660915027759    2.16326737184315   -0.48956177764258
H          -0.20555323254768    1.78006392952326   -0.71377549237013
O          -0.79197794863970   -0.56496176440555    2.22799256680960
H          -1.17793154676570   -1.28518542981594    2.72796058604248
O          -0.76529685686325    2.25037069818727    2.27437519264483
H          -0.73528803273135    1.28767959960750    2.39059286449152
H          -0.96722206353010    2.47303131288799    0.42580927977639
H          -1.52479110177337    2.56385048126592    2.76782033872968
O          -2.17041392275044   -0.20763307031792    0.10696265202357
H          -2.01595276200442    0.74093820795487   -0.09713510044242
H          -1.62389765138830   -0.66960641297996   -0.56319620415403
H          -1.38268341822842   -0.45186676612547    1.40298190883219
N           1.57330921327548   -0.71495608064740    0.94309263486183
H           1.43855683975741    0.01784236813205    0.17320662921644
H           1.67645918822936   -1.62161401834611    0.40279612870243
H           2.39196710665777   -0.50641641415361    1.50447916893375
H           0.70279066351563   -0.72323548952750    1.52758562336061
