    26
        -50.45332207  Gyration_radius:  2.73175965057 Dipole_moment: 4.592
 S          -0.00853278318854    1.23247437537741   -2.57132799721037
O           1.38110052997791    1.51850342839575   -2.82879698456311
O          -0.32005257238503   -0.19313583944536   -2.70753399024557
O          -0.47799295851772    1.75211385614640   -1.29067968461718
O          -0.85702330138627    1.98726213362753   -3.68426465527941
H          -0.34144033627825    1.87137523235584   -4.47753247752201
H           1.00380840358794    1.68897415571811   -0.44224327459668
O           0.65107903788716   -2.06978796066568    2.18029477895094
H           0.89938722436995   -2.48987537215195    3.00460185021818
O          -1.50432540371116    0.51875762841256    0.85369798946186
H          -1.38339435392257    1.11211192155647    0.08701272362858
O           1.86185637027729    1.29752896660836   -0.16713948978006
H           2.39920840998185    1.41766247813692   -0.95960782484828
O           0.69011518132523    0.74921758585923    2.37534040798790
H          -0.86841921203112    0.82992668276055    1.53588592532422
H           0.84068892395889   -0.21054587271161    2.39592778994684
H           1.32793682387382    1.11459208792801    1.75100287745036
O          -2.04574689433364   -1.98123612008588    1.80923898564470
H          -2.10489714509552   -1.04020627184232    1.57113387221951
H          -2.69983762081930   -2.43917478917964    1.27989508133666
H          -0.32353269071211   -2.12494135576193    2.13184657441312
N           0.38835557240701   -0.95131204975993   -0.36601515474603
H          -0.42650292014950   -0.58146102488316    0.18975153595057
H           0.10791608055326   -0.84145159280957   -1.39451541117158
H           1.17141185489074   -0.27732214129145   -0.20885526458946
H           0.63883378932269   -1.89005012232651   -0.06711818345061
