    26
        -50.44110260  Gyration_radius:  2.83879437299 Dipole_moment: 8.374
 S          -1.97978215211230   -0.81403263657218   -2.65449836792324
O          -2.52621199301492   -0.76485980641039   -1.32007442852448
O          -2.85852355364859   -1.08264075039240   -3.72622278753628
O          -1.24273441381175    0.53724033777374   -2.90852785115099
O          -0.82729637083300   -1.85791892806091   -2.67668006644462
H          -0.25359652427513   -1.78245456521348   -1.86759158401566
H          -0.96234910794263    0.93898716301040   -2.04552468847942
O           0.79060455356793   -1.71268529921497   -0.62839370444831
H           1.41942976957416   -2.42210813465715   -0.77018388137999
O          -0.56167643722702    1.59500241248579   -0.60592282936321
H          -1.17838387006886    2.30726798439379   -0.42996325923378
O           2.52677877098504    1.04789269548322    1.85344172440259
H           3.22100382319580    0.60763425593021    2.34435684939382
O           2.03105486793563    0.54184434108403   -0.73758583622748
H           1.31347214452595   -0.85064529955868   -0.71085606890407
H           1.32487031290965    1.17203522495128   -0.92711908055108
H           2.31234238319752    0.74733292625167    0.18080824102501
O          -1.14772335591368   -0.49848381945116    0.89251047383874
H          -0.75737389086374    0.87594574210670    0.05397805751871
H          -1.85814821934929   -0.67975686788361    0.24177239888733
H          -0.43189045496180   -1.09748595389353    0.63014166433382
N           0.23931420139738    0.61549283381082    3.25344187442966
H           1.68938334590491    0.91950013910161    2.36520671232068
H          -0.17478909394595    1.46986447559636    3.60492910063161
H          -0.39865394578718    0.22608981902564    2.56429933028396
H           0.29087921057805   -0.03905829956870    4.02425802718661
