    26
        -50.45332170  Gyration_radius:  2.73234834437 Dipole_moment: 4.587
 S           0.64562643152511   -1.19929029563476    2.50646092781556
O           2.07371232762075   -1.39058022301809    2.44977943342766
O           0.27689021765724    0.20392750773422    2.71284254963248
O          -0.05911412137788   -1.76327799328314    1.35926824301638
O           0.11614893542925   -1.99588068689860    3.77680843548132
H           0.79068122616905   -1.84661656313901    4.43339429905398
H           1.19031178631822   -1.60822878172050    0.20632858269498
O          -1.61679408101551   -0.62732208579605   -0.49952617224350
H          -1.28916028174105   -1.20186979736459    0.21957644514146
O           1.93701306949312   -1.16396764860985   -0.25243714644291
H           2.64499104941653   -1.23957911384022    0.39874270123529
O           0.01016797495068    2.08028021042643   -2.26579960963775
H           0.04134532276878    2.50397877608158   -3.12435320646010
O          -2.52681156035028    1.81689861067093   -1.30901281376857
H          -0.93100832173434    2.07141410691099   -2.00292429751893
H          -2.46662034323408    0.87766823184451   -1.06430794091884
H          -3.08260941588246    2.23603961210577   -0.65094889543775
O           0.19681840346523   -0.73164682102967   -2.46993693420993
H           0.27344564202488    0.23570242909975   -2.52125784909405
H           0.97984199324563   -1.04509726346439   -2.00219508316867
H          -1.12764063139228   -0.90373747715353   -1.30638213677657
N           0.39284936786726    0.98193866579528    0.27529443055966
H           1.16643513146726    0.36161180702746   -0.05459450354069
H          -0.49743894132112    0.55065279798968   -0.08702770139228
H           0.35594566938380    0.86477253398376    1.33991239793549
H           0.50497315928682    1.93220946136520   -0.06770415516901
