    26
        -50.45332186  Gyration_radius:  2.73226380484 Dipole_moment: 4.590
 S          -2.36073246228906   -0.65302813461838   -1.46179903608843
O          -2.48062026829666    0.40811295217544   -2.43071339251375
O          -1.29526477916629   -1.60084487148446   -1.79942696974106
O          -2.21887437852203   -0.17085890858355   -0.09127178275413
O          -3.72194091065436   -1.47440998421321   -1.49523120519695
H          -3.94545402818347   -1.50192608426739   -2.42133411557256
H          -1.45701091914493    1.31819727460750   -0.43431875533637
O          -0.83036923788186    1.91957586777414   -0.89367499292258
H          -1.24175402442035    2.01177039351393   -1.76160787416614
O           2.97534747914540    0.57591622401098    0.52246618029374
H           3.79717990722744    0.96121464161626    0.82869460364624
O          -0.26744934280461   -0.50316467546290    1.71210518838448
H          -1.13774195168868   -0.50171468766399    1.26807702369652
O           2.21993159860944   -1.59775428007392    1.98024035850646
H           2.81966804999229   -0.20919057610974    1.08328825483043
H           1.29797528672254   -1.32752150187786    2.13086280923252
H           2.21279803436445   -2.55023680190823    1.87825462114476
O           0.72356922981007    1.97750841832411    1.49704530737656
H          -0.05990026913728    0.43997066459343    1.89687541830431
H           1.56495103620706    1.66503994630571    1.12458682067757
H           0.21181857390484    2.33235599804726    0.76057849803604
N           0.67869273803575   -0.31245551185932   -0.79719269041077
H           0.33999955692919    0.66080640744168   -0.97059157020312
H           0.00422539622715   -0.95681824251955   -1.32456944413421
H           1.66410448952223   -0.41066095787882   -1.02654198389604
H           0.50685119557957   -0.49988356995927    0.22519874868917
