    26
        -50.46242440  Gyration_radius:  2.65988337249 Dipole_moment: 3.776
 S           0.20894116516085   -0.73211355783245    2.30279655219789
O           1.45595192137170   -1.07665364684340    1.63105067817268
O           0.09613896746183    0.66068915499491    2.65588414695372
O          -0.94531012107419   -1.21444845237750    1.53905362634012
O           0.20884685004397   -1.54458150977470    3.66579297291322
H           0.46804190697142   -2.42667471440543    3.41629844488874
H          -1.88134289631631    0.16757191628072    1.19255201681342
O          -2.03934825685629    1.12869120027774    1.07622301070383
H          -1.56720167320867    1.49701828341227    1.83523328393294
O          -0.37695830909405   -0.94786729014902   -2.34944466444231
H          -1.26831130932229   -1.24797074225182   -2.53786635397272
O           1.83764197949285    1.35895686019252    0.74252743542543
H           1.94957076339405    0.40541355296995    0.93927111519791
O           0.03901414786059    1.62540129959880   -3.62384333750315
H           0.50709459923094    1.79002803815295   -4.44288113301442
H           1.41322759764964    1.67348142725292    1.55339768455360
H           0.03649488670424    0.66859324459948   -3.48975124818296
O           0.32987642974988   -2.48657392103162   -0.36960278612162
H           1.17081411109069   -2.22851384176588    0.03099686900752
H          -0.31811135634259   -2.15151944202865    0.28695579091149
H          -0.01926405102210   -1.59839527801715   -1.68142529849397
N          -0.26579270132303    1.35257605932762   -0.87988819631593
H           0.64003403784885    1.40876649473368   -0.33101825033348
H          -1.06464138224315    1.39076887501659   -0.18494483908724
H          -0.31015346045860    2.08529369947297   -1.58798173730165
H          -0.30525385677277    0.44206231021268   -1.38938576322684
