    26
        -50.45004539  Gyration_radius:  2.53757111447 Dipole_moment: 6.012
 S          -1.91925064788341   -0.57905589585793    1.68386977366435
O          -0.68836638918083    0.17947300684172    1.63525942070702
O          -2.65080854951626   -0.55975329691211    2.89265727819841
O          -2.82473817895655   -0.10888854103716    0.51505832291860
O          -1.58975417145478   -2.05063594976669    1.31757507562410
H          -0.86810093002412   -2.08571792537000    0.62810959186561
H          -2.32131370925627    0.39102052532851   -0.18946108837275
O           0.38109464426532   -2.23171943952906   -0.35914521531220
H           0.66143726908631   -3.14799753589335   -0.38238765642903
O          -1.67565691494585    1.17182462242255   -1.41880277906944
H          -2.31948354580815    1.20160063073144   -2.12832538556079
O           2.17507201549426    1.42779157477213   -0.91668236022185
H           2.62085993061083    2.13150836142182   -1.38925546354610
O           0.38449775638810   -0.17842057711620   -2.20013246182719
H           0.35710347072537   -0.99772537252823   -1.68016461812218
H          -0.89183294544213    0.64044096951018   -1.76474031275820
H           1.12373887701435    0.34365121903262   -1.82722485583503
O           0.08314673690624    2.42616383005880    0.34872276531568
H          -0.14429192492920    1.71761735180126    0.97682276665103
H           1.44494570735617    1.86074488992976   -0.39867546399500
H          -0.61041732297771    2.37617348386553   -0.32188742396298
N           1.96152018234360   -0.76594037360506    1.05334703317709
H           2.64864921287370   -1.07274300317414    1.72860924350679
H           1.07699743780846   -1.71248755949577    0.19561553429157
H           1.19807536056378   -0.30996159458910    1.54962268434204
H           2.38687663894130   -0.06696340084245    0.45161558475131
