    26
        -50.46571668  Gyration_radius:  2.43854735175 Dipole_moment: 5.132
 S          -1.14611958292459   -0.40899554992998    1.17549897713717
O           0.29058985983712   -0.08328120260780    1.26454235891994
O          -1.93980024139547    0.37308116043038    2.08799490982925
O          -1.54811852157426    0.04343365360187   -0.31387105258026
O          -1.37005908778332   -1.82871606856824    1.16524794676114
H           0.54299866775849   -2.97188182670804    1.45439992490047
H          -1.40827600513857    1.02222670831503   -0.37410482542416
O           1.22304964698605   -2.50356837039784    0.95767691547410
H           1.06307867672667   -1.55840554804349    1.19097008667228
O          -1.05159565356583    2.62272075160459   -0.32930798766696
H          -1.83677782731011    3.16234679988881   -0.43626225766880
O           1.69005012487795   -0.48720133296597   -2.63062185249258
H           2.61505152450333   -0.73867581406922   -2.61096315040582
O          -0.43616282618045    2.49171296993532    2.18945199179460
H          -1.07928990966101    1.75394837970191    2.31982991111480
H           0.42530234027985    2.06933868962716    2.25557738985181
H          -0.78797488591882    2.70437789056842    0.63479016677084
O           1.39464388317685    1.28423653676727   -0.73105285409506
H           0.72598208730171    1.96268900697790   -0.88011777659607
H           1.07515153513810    0.77578914514425    0.04549599116793
H           1.60372124147063    0.26853350262923   -1.98671652156758
N          -0.01718015909471   -2.00679280804640   -1.31105714856792
H          -0.73550872152331   -1.34342387731202   -0.96780002198145
H           0.51491230575237   -2.33674635773472   -0.43971505899282
H          -0.46260907986883   -2.78626891698753   -1.78447016406982
H           0.65494062834583   -1.48047750177167   -1.94541588832995
