    26
        -50.46571666  Gyration_radius:  2.43850075826 Dipole_moment: 5.126
 S          -0.69217394412164    0.86851942373676   -1.27532986870341
O          -1.00478314213200    0.80667366361050    0.16573222885415
O          -0.53402254837479    2.22226481151799   -1.74079470789002
O           0.74481067190535    0.15622965095808   -1.38468213822916
O          -1.55070910726179    0.00871679696257   -2.04309573390369
H          -3.12372212074292   -0.95265739465188   -0.75999528784106
H           1.38748819231286    0.70431230216327   -0.86706225375081
O           0.90328892650355   -2.63467118664732    1.50092533620870
H           0.41929202016048   -2.99246529865410    2.24721987371478
O          -2.70068261935942   -1.17753687310793    0.07604466067320
H          -2.18172328482067   -0.36678049629129    0.29207736041364
O           2.29970345635765    1.67529048503744    0.08923785403138
H           2.98180657976768    2.12365876212309   -0.41362122506684
O           0.89159591001760   -0.04075614664941    1.82585266720450
H           0.13380582509901    0.27908654930624    1.28998228766594
H           0.99796271309710   -1.65987485505466    1.68526503591160
H           1.65818041677267    0.43660491667996    1.48817256207172
O           0.30872997077157    3.29686813326821    0.47155855329409
H          -0.05867341380574    3.07184395074362   -0.41691649622102
H          -0.29436811488163    2.87579163804138    1.09113477329260
H           1.61579805823069    2.37367183981769    0.31344645767325
N          -0.43375813916778   -2.23900230714007   -0.73975746564925
H           0.12317511519269   -2.52486900019383    0.12008573563998
H           0.00630423196179   -1.39711956622720   -1.15380077715591
H          -0.48253389716909   -2.98065332924690   -1.43086258598111
H          -1.41479176635071   -1.93314647008251   -0.43081681626124
