    26
        -50.45123062  Gyration_radius:  2.47077593415 Dipole_moment: 4.666
 S          -1.05270866061281   -0.36170786506328    2.12378181474147
O           0.10341133094308    0.36782722489277    1.65213873800611
O          -1.56133731854708    0.01958699058975    3.38857119061727
O          -2.15138424983129   -0.27245982874677    1.02222177633654
O          -0.73437399561087   -1.86732402453761    2.10935377743719
H          -0.56332550055652   -2.09035641243437    1.14440363517216
H          -2.05396947409232    0.54954474042845    0.46033751153347
O          -0.40637352240244   -2.37687053991063   -0.38689112593572
H          -1.12270705251238   -2.96545621611291   -0.63326232309473
O          -1.89885495057038    1.80418537797013   -0.49712297653258
H          -2.51600450915843    2.50057719127948   -0.26769048169898
O           1.81457587837735    0.82107780676583   -1.73405101795584
H           2.53018509425349    0.83060312218030   -2.36995802176136
O          -0.67484618396044   -0.29343585389895   -1.95661581134174
H          -0.50894496141150   -1.57151496391393   -0.96950407783265
H          -1.27904816391029    0.38065801496531   -1.62250381454004
H           0.20207041028091    0.13252685477603   -2.00044230393438
O           0.52499941829218    2.48702420416757    0.04398279484859
H           0.54705849208596    1.85809824725175    0.78626099889042
H           1.06604683067543    2.07456441947362   -0.65176470704762
H          -0.97209239751741    2.16647841876759   -0.32305951756194
N           2.20862426873073   -0.92795713195790    0.20283805526864
H           3.07709478574844   -1.10848802336067    0.68972918299118
H           2.05710501398417    0.15330172855334   -1.02240880096865
H           1.79920651738401   -1.81955824599553   -0.05155934046624
H           1.56559291993645   -0.49092523613007    0.86321483483161
