    26
        -50.46571664  Gyration_radius:  2.4385326775 Dipole_moment: 5.126
 S           0.12728425460990    1.39983293829920   -0.94050646258200
O          -0.85567494927185    0.97426876068679    0.07476806206325
O           0.64817474850569    2.71628956872798   -0.67605567535141
O           1.34032781449561    0.36138835572088   -0.75584224017518
O          -0.33806381899351    1.13632971766651   -2.27461244372795
H          -2.43721285550633    0.33692198585901   -2.27803482731380
H           1.70564825232410    0.49116500787112    0.15566927563707
O           2.13779017728551    0.77720467983807    1.71196629548523
H           3.02518010444748    1.13529641555180    1.77108843487327
O          -2.50699718964325   -0.26237734120608   -1.52668186177401
H          -2.07036374557852    0.23783835356886   -0.79689993514854
O          -0.26097742084478   -3.12081205834630    0.45399388679365
H          -1.08697092401367   -3.53447312361249    0.71068683459152
O          -0.12807400005208   -0.89562274246816    1.81962271029283
H          -0.48331534268954   -0.20630328619528    1.21767264754275
H          -0.15579900722462   -2.33489033546494    1.05765153874889
H           0.75501439354604   -0.59092564704207    2.05814458879841
O           0.41706115280769    2.71085246866561    1.91364241851009
H          -0.45614438404773    2.31572121085424    1.99283727772072
H           1.51745653820680    1.53802579695936    1.91687927382324
H           0.50878347952018    2.90715599668368    0.95029510176235
N          -0.27144159979443   -1.63796408814489   -1.72916725709842
H          -0.24490383900472   -2.34031131877943   -0.93088797348281
H          -0.06088403906641   -2.06575827246265   -2.62512135565430
H          -1.23506179078936   -1.16598992583607   -1.74290307501404
H           0.40916400072647   -0.88286309730481   -1.52820523925026
