    26
        -50.44922930  Gyration_radius:  2.46945326115 Dipole_moment: 5.759
 S          -1.86531892147352   -1.12980300928033    0.45928254680659
O          -1.02213047106702   -1.26250308928328   -0.70788677195934
O          -2.49946517573033   -2.30298196380501    0.92760528454818
O          -1.01158075903638   -0.45647171627696    1.57886686690081
O          -2.91062055623081   -0.02689624272930    0.19460359752694
H          -2.45528336706608    0.78420569367160   -0.17371121810016
H          -0.25694779483628   -1.09053013529656    1.88905394681958
O           0.98766101272450   -1.83259661426834    2.22196296517284
H           1.56813457145306   -1.26474474228311    2.73409913598991
O          -1.75541650779253    2.05657920046851   -0.84463897098422
H          -2.40558412730167    2.51029279679937   -1.38363522857694
O           2.09450009460115    1.15364084062902   -0.71266619087178
H           2.69667787271683    1.88158177613265   -0.87194735717107
O          -0.11127915526591    0.70049312403877   -2.28008102673579
H          -0.43063312214170   -0.13799584020803   -1.89551574266467
H          -1.11390670753813    1.60466448759470   -1.48398410273871
H           0.76729277409912    0.84362311724813   -1.87910613070622
O           0.27118557335601    1.93796528597171    1.06573389215293
H          -0.14469303990761    1.14071349743041    1.42898868253372
H           1.49158569922047    1.44678330862160    0.01379511332884
H          -0.41265908044830    2.33759430022428    0.51140593131576
N           1.78323560712196   -1.78974741992596   -0.25206795037961
H           0.83838167449728   -1.81695475833437   -0.63019625203509
H           1.39304702489697   -1.90416620941029    1.29069373550445
H           2.33154376364000   -2.50176691885449   -0.71545464826925
H           2.17227314767852   -0.88097878894196   -0.48520011614749
