    26
        -50.46846769  Gyration_radius:  2.39928563523 Dipole_moment: 5.642
 S          -1.49285362110087   -0.62202888148820    0.83478132181464
O          -0.71940038724972    0.41862378991647    1.55506851183616
O          -1.90443491697214   -1.68584440697610    1.71005819122815
O          -2.75538431554142    0.08903186634207    0.26095078514176
O          -0.70632254818462   -1.10438780693418   -0.29478567218396
H           0.16308000517049   -3.25537300556979    0.35663667564551
H          -2.42575440576925    0.70650170331536   -0.43554450530683
O           0.31467521306638   -3.06940238143794    1.28829666652163
H          -0.54449227470220   -2.69298980674651    1.59075075449703
O          -1.76745077189441    1.85822749204763   -1.46679713606949
H          -2.39118626967754    2.58459988388835   -1.51769140688268
O           2.24357688333341    0.63406017689464   -0.88473611932085
H           3.04737535069534    0.63469815896517   -1.40584757157379
O           0.22823161911492    0.06571256142353   -2.42424129317667
H          -0.16988166606174   -0.50106200514563   -1.72478568821998
H          -0.40811871208119    0.78310627916588   -2.52626792840145
H           1.50106066128743    0.41590272201878   -1.52451824858253
O           0.23140083271128    2.41884932217186    0.11635965234923
H          -0.13138944382870    1.78593616949512    0.77403542005106
H           1.04465886422436    2.01129189308137   -0.21200879410028
H          -1.00222913253921    2.18066022625991   -0.91232653980214
N           1.56932608964390   -0.73599833872618    1.37603069352480
H           2.24076568712016   -0.63422675318184    2.12996990969191
H           1.22584187777189   -1.73803770939325    1.28774195154832
H           0.66626360609186   -0.18618747478094    1.57107526651387
H           1.94264179537720   -0.36166367457985    0.47779508326755
