    26
        -50.45788890  Gyration_radius:  2.41142033523 Dipole_moment: 7.659
 S          -1.91188329180975   -0.66681717261087    1.02352672060234
O          -0.91904789402299    0.34752422749851    1.49027209439783
O          -3.25203886494863   -0.27434724913795    1.30055764320371
O          -1.70196209884333   -0.71966589718487   -0.54737889767588
O          -1.48824235257646   -1.98725420175802    1.45256527678651
H          -0.39963177084239   -2.35474903225741    0.40089904152458
H          -1.80204358424230    0.18173100390898   -0.92595094392800
O           0.42033368512508   -2.51249241535825   -0.15564928950907
H           0.37283312725289   -3.42466982869965   -0.44401794439102
O          -1.52916712681222    1.63688053184538   -1.69714863269166
H          -2.34793658650820    2.12965014166660   -1.76804558495179
O           2.29871508185136    1.13409146866862   -0.35661897152426
H           3.08200662758210    1.42748384471142   -0.82275046860057
O           0.78242243195666   -0.30216309047104   -1.92354675056484
H           0.49487854354661   -1.08618070036235   -1.42433829060984
H          -0.01950351090496    0.19632904566088   -2.11951866470635
H           1.75298965598626    0.61972020071257   -1.01754815036963
O          -0.07299754368270    2.55855532842980    0.27040144330927
H          -0.45337309594950    1.88206047455544    0.86675435194681
H           0.83764258429730    2.27265609842524    0.10724457008961
H          -0.97577275298496    2.11000218254272   -1.01599143872884
N           1.40454503377487   -0.64378399196621    1.48053826899192
H           1.28857935301891   -1.51025129550958    0.92107649149921
H           1.96717443914682    0.04165289583716    0.94466928992699
H           0.37771979225925   -0.22126413074144    1.56382839666098
H           1.79376010832849   -0.83469842841214    2.39617044931986
