    26
        -50.44877584  Gyration_radius:  2.46884296907 Dipole_moment: 6.599
 S          -1.09744741276144   -1.36601809377741    1.35476971861437
O          -0.22443102811835   -0.26482084272667    1.68857667583936
O          -2.12582463303078   -1.67788395283239    2.27268713068438
O          -1.68362479828893   -1.07727526403368   -0.07064136951208
O          -0.24208838109381   -2.61139466629625    1.06589294760759
H           0.52074617482038   -2.37339718286651    0.45469763397044
H          -2.34186904408277   -0.30277822724699   -0.00185332852943
O           1.63050916883613   -2.10301736442776   -0.63710788795658
H           1.76424318817257   -2.93044089331018   -1.10390223711520
O           0.95436574669798    1.87927190611706   -1.17181097605939
H           1.49938086231897    2.51743300455952   -1.63313915199119
O          -3.10841103463454    1.01273481819751    0.01975868406238
H          -3.34803313402199    1.34671474986498   -0.84767438622065
O           0.13872511375145   -0.54504002856098   -2.09767822857001
H          -0.65329442352524   -0.73135860833330   -1.57217972949160
H           0.39085655167701    0.37540651576323   -1.88633135845639
H           1.14375677163705   -1.49892647169073   -1.27008966100753
O          -0.94236933266805    2.20203557634155    0.81755494908493
H          -0.33056408228246    2.24628754431468    0.06231809558456
H          -2.38479667518550    1.60762052188326    0.37006036674476
H          -0.64697691691140    1.43069577747564    1.33282295044784
N           2.31997869670381    0.54237803368374    0.63614475810206
H           1.54575695070465    1.42085427263263   -0.49405640611083
H           2.70853046938217   -0.31269838705577    0.25522478086111
H           3.00221353338550    0.94762340681398    1.26415333604414
H           1.51066766849762    0.26599384550899    1.19180269338569
