    26
        -50.44877582  Gyration_radius:  2.46885309837 Dipole_moment: 6.597
 S          -1.21263422268321   -1.41572995434732    1.19612393508400
O          -0.09219347153873   -0.60466959653235    1.61211643845180
O          -2.17894319317495   -1.73663730080955    2.17621806058772
O          -1.87312447675287   -0.69891855186076   -0.03209976695487
O          -0.68169839948142   -2.69597186091760    0.52886035764746
H           0.04465664686481   -2.46812905649108   -0.12891816181570
H          -2.33817334371776    0.14643117522476    0.29496010376048
O           1.06275190662011   -2.16204612390414   -1.29793298281758
H           0.96496456188245   -2.86867579094140   -1.93943151285833
O           1.20285861612316    1.88968722040151   -0.89287615700244
H           1.81897196203927    2.50610839800189   -1.28980106570690
O          -2.79730541702668    1.53909617636167    0.70505801080609
H          -3.05277946472141    2.10469001301061   -0.02721741756273
O          -0.20905250838138   -0.05901809404935   -2.16156961886368
H           0.65130481411296   -1.34830081049805   -1.71141752537970
H          -0.96099053438289   -0.21200038458203   -1.57050548458066
H           0.25608705515718    0.72414569335883   -1.80705522928251
O          -0.35263767150113    2.08615565973499    1.38794846388541
H           0.16852249727474    2.19025607175407    0.57290929764196
H          -1.92896189647945    1.89116369380809    1.05468381113291
H          -0.17632401572264    1.17496827993538    1.68189029362418
N           2.43694910322721   -0.05980140359562    0.37103389583705
H           2.58920849243452   -0.85978993673708   -0.23236837228034
H           1.65240690735205   -0.30294470843179    0.97559265004878
H           3.25434741019016    0.05505191697524    0.95643476785916
H           1.75178863219570    1.18487924516721   -0.42263678128566
