    26
        -50.45004578  Gyration_radius:  2.53771492833 Dipole_moment: 6.012
 S          -2.43801827973026   -0.72346889377879    0.62359260688238
O          -1.33314030162936    0.02334326302646    1.18418441443443
O          -3.61922776112246   -0.81871485452984    1.39321199502728
O          -2.76737882881582   -0.12845223464610   -0.77084371471674
O          -1.93242194303375   -2.15388445079923    0.29714215451957
H          -0.98219577996856   -2.12780676102056   -0.00909582031832
H          -2.02507994022808    0.43096547221233   -1.13902583889241
O           0.57575463979059   -2.18898614855507   -0.36344114261579
H           0.86928916262394   -3.10128978636798   -0.34732408151018
O          -0.93682966414636    1.32013495980406   -1.88994849028433
H          -1.21100785954052    1.42506943772270   -2.80246775924730
O           2.30741317753094    1.49090635051878    0.25403215506782
H           2.88894166260361    2.23365823570346    0.08819347186052
O           1.30425995905365    0.03536442182374   -1.82139183488456
H           1.08345765866140   -0.83101888158667   -1.44323628270165
H          -0.06276246624593    0.81810649382103   -1.90904309020369
H           1.79090465090458    0.51158518437385   -1.11813065169996
O          -0.15932275234390    2.37852936261088    0.57313233170855
H          -0.61134417672082    1.61358748907174    0.97173234732753
H           1.41060851118567    1.87731114570487    0.44194790875012
H          -0.49266765979793    2.40138680036071   -0.33327182509812
N           1.33912995523275   -0.88428095858540    1.72386420376742
H           1.95856069224880   -0.13361834399510    1.43343329567990
H           1.67724183203798   -1.26263332702270    2.59840389782432
H           0.42116442424289   -0.47219915538881    1.88032979345126
H           0.94467107720355   -1.73359483047642    0.48401993587193
