    26
        -50.45730965  Gyration_radius:  2.4489769917 Dipole_moment: 7.984
 S          -1.53323285171205   -0.55138038668092    1.78921925186868
O          -0.34134892628550    0.34720707380305    1.88486440310890
O          -2.42689383829171   -0.39460985845797    2.88108763745252
O          -2.11315180469474   -0.44382183989919    0.45738740508237
O          -0.89629526534090   -2.00630049989003    1.83525072839427
H          -0.67240251850721   -2.16162714921351    0.90190965617810
H          -1.98514486429864    0.69057344368808   -0.60143909374036
O           0.13635457090603   -2.30995255018195   -0.65529368519579
H          -0.24912214257988   -3.05631457459878   -1.11523560141414
O          -1.83880847529029    1.37445467521156   -1.31574626735527
H          -2.70650634345312    1.57021683207458   -1.67060066773865
O           2.11390783274727    1.28575782577097   -0.85017893358736
H           2.80271986072633    1.92477842779438   -1.03350151910821
O           0.16971285468439   -0.22242852798479   -2.22205214840769
H           0.06037320908647   -1.53116205742410   -1.28055597373541
H          -0.60660072267588    0.33940769401057   -2.03401196038645
H           0.93617895351430    0.30013790584840   -1.94400195634357
O           0.10237160825572    2.43195792488864    0.27300969957051
H          -0.63001338437724    2.31324080472724   -0.35626885942650
H          -0.10037926739068    1.80610461756432    0.99906766008951
H           1.35160607713636    1.80419382442621   -0.42946764980318
N           1.72153256723937   -0.72035457767143    0.89854264990947
H           2.41531632471395   -0.98556138331144    1.58793438047764
H           1.38068054514884   -1.53707337115299    0.37435906214013
H           0.82731909533648   -0.26512729062709    1.39291128865549
H           2.08182690540170   -0.00231699269937    0.23281049331226
