    26
        -50.43947773  Gyration_radius:  2.63408564586 Dipole_moment: 7.863
 S          -0.56274047396281   -0.19504819843274   -2.70231965205683
O          -0.84497477740281   -0.81474561931164   -1.43636640312031
O          -1.29524958746408   -0.62302764293611   -3.83623873591264
O          -0.70458405066722    1.34795205618638   -2.52753523599969
O           0.95996456068939   -0.35778895534013   -2.99358121155608
H           1.41200134339865   -0.27972201091815   -2.12126751441242
H          -0.98060726680834    1.58681835370178   -1.59530734224192
O          -1.30482425748776    2.18261346111330   -0.14938296091968
H          -1.27735043035041    3.13583340767444   -0.25303552642430
O           2.24765391037574   -0.17647215852007   -0.69522255617911
H           3.17304808881790   -0.27624102811943   -0.92787419781530
O          -0.03800336313078   -0.66019732424151    2.55767628642234
H          -0.31599589959287   -0.77378105181265    3.46683020276458
O           1.76089406053611   -2.05205907533723    1.10231139666314
H           2.45623266498664   -2.24161701533627    1.73473737667185
H           1.03109907049873   -1.63952753269624    1.60980325087342
H           2.01127824604106   -0.95311513603472   -0.12452035164867
O           0.89087073841768    1.48869869400910    1.10381250958242
H           1.40753582044634    1.03849970626591    0.41870961986662
H          -0.48550970972403    1.93531150551181    0.36363629414176
H           0.61586852840425    0.78945262889471    1.72340516241648
N          -2.14444592539249   -0.49287344706027    1.04228589805850
H          -0.88804626662779   -0.63304118346417    1.99424413575557
H          -2.97296372234873   -1.06366388202485    1.15236677759054
H          -2.43706714818513    0.47267788600264    0.94236989899456
H          -1.71408416346648   -0.74493643777394    0.15046285848543
