    26
        -50.46788052  Gyration_radius:  2.39844666502 Dipole_moment: 5.646
 S           0.11711123085708   -0.65985704136803    1.67617691741627
O           0.02896435845314   -1.69335556119714    0.61778925406354
O           1.08505862009109   -1.00020387947979    2.68363984051000
O           0.38923215418419    0.63419661965293    1.06015258467792
O          -1.29559861748708   -0.58031163093792    2.33259966530065
H          -1.90362442156832   -0.21268583037031    1.64736082670135
H           2.75356206947838    1.09556836153441    1.47918309061194
O          -2.86187723969084    0.52365981056123    0.47816906063242
H          -3.57960221374537    0.97648742371977    0.92400840514695
O           3.05828058533660    0.18913387450980    1.37704824035882
H           2.46789586494684   -0.32461737187813    1.97653565784217
O           0.13774246664643    0.55176252356236   -2.42242141147901
H           0.08388537011712    0.50350890506526   -3.37773201577857
O          -1.07813182262652    2.19664143055947   -0.42697635459701
H          -0.45809147192352    1.77317176527766    0.20726970253228
H          -0.73887296951493    1.92469205471927   -1.28995141382745
H          -2.26141226251582    1.23611043784050    0.11007642700058
O          -1.58811878243011   -1.11310126680729   -1.38793897339835
H          -0.55975526542849   -0.07581428036510   -2.07241593087879
H          -1.04489590496632   -1.47131378502706   -0.65159291318127
H          -2.31471426872995   -0.65488620099047   -0.94671573156887
N           1.93935367975040   -0.76320555224137   -0.83092593256354
H           1.16882130426120   -1.28528229065635   -0.29217041346712
H           2.48446326626080   -0.27749381289671   -0.05828752193075
H           2.52691366913921   -1.39981499205143   -1.35941810007768
H           1.44341059110107   -0.09298970072226   -1.45346295005055
