    26
        -50.45004754  Gyration_radius:  2.53827179139 Dipole_moment: 6.005
 S          -2.08861201361557   -1.02348401734442    1.20752049163528
O          -0.93600395333663   -0.20270646383334    1.50856596569274
O          -2.97876474454389   -1.31384185790973    2.26574038029186
O          -2.86506456248530   -0.36014369413083    0.03972928943533
O          -1.57984097074890   -2.35633211026273    0.59604942261566
H          -0.75298248260592   -2.20600964557638    0.05610536278042
H          -2.30381297438303    0.28124270165932   -0.48226568374487
O           0.64844103270928   -2.08260246577590   -0.70177387369804
H           1.00969735464920   -2.95910433632095   -0.84285882673095
O          -1.54754937597712    1.31026051791864   -1.43668318068487
H          -2.07666728739887    1.43870718726579   -2.22554724218354
O           2.13992966917508    1.72044792462636   -0.25989701030092
H           2.58003554350084    2.53318596673145   -0.51127834141950
O           0.73074783854975    0.28906481793692   -2.10306054592877
H           0.70777514241115   -0.61787542183899   -1.75776318832499
H          -0.67230953408330    0.91218559253227   -1.73981430406100
H           1.34988959320065    0.77480966911078   -1.52087954156874
O          -0.20700121121224    2.30048344594325    0.80254871324304
H          -0.45459082135421    1.46709211715937    1.24149265216585
H           1.30103337250504    1.99037173122039    0.20084816713872
H          -0.78337738216808    2.33814418019750    0.02817776982099
N           1.85064436346112   -0.83226159103898    1.20424963181648
H           2.45845872879927   -1.22240045549199    1.91176744046387
H           1.19842043994050   -1.64182211872484    0.04981014840346
H           0.98223071239717   -0.53775487033577    1.64694785973340
H           2.28927353260636    0.00034317623826    0.82226845339741
