    26
        -50.44809202  Gyration_radius:  2.54165377075 Dipole_moment: 6.782
 S          -2.15690183821652    1.14713696640058    0.24751440061474
O          -1.92250643149898   -0.13519844887008    0.87170711803091
O          -3.02244156718171    2.03903305713310    0.92038390166199
O          -0.74993712171047    1.78546778008545    0.00349806544922
O          -2.65850556058658    0.93710969590406   -1.19583338606202
H          -2.08272975418753    0.29714678524495   -1.71142572342989
H          -0.34313349025193    1.72101153950868    0.95118844713497
O           1.89335556420587   -1.35386962992086   -0.37474142658248
H           2.38586951479595   -2.04428858812767   -0.82096805942524
O          -1.11369597192514   -0.57352986479211   -2.62483342432523
H          -1.33835232615552   -0.39740310450382   -3.54032299946491
O          -0.02684407029536    1.28610977819414    2.33560340073779
H          -0.71425723249508    0.61340069212250    2.40786936405492
O          -0.61163278825081   -2.12529184433125   -0.33656670205571
H          -0.91118148568726   -1.94773904965215   -1.23682503008420
H           0.96048507976855   -1.69455707102012   -0.28706906112687
H          -1.11865554758369   -1.50418559033081    0.22298414461379
O           0.99965805097823    0.72000755317241   -1.88403556393995
H          -0.24877569191494   -0.09158894229641   -2.44161353206601
H           0.55144167642556    1.31405218913097   -1.26355804694083
H           1.47224341988537    0.06250267271168   -1.33396900363056
N           2.25204500999970   -0.06656139717500    2.22891442672088
H           0.85326221267646    0.79643599084525    2.33249874069438
H           2.22897090553267   -0.53706708972545    1.32643128488670
H           3.07335128076571    0.52358670176424    2.25505212772119
H           2.34886817294009   -0.77172079147490    2.94811653681834
