    26
        -50.45640443  Gyration_radius:  2.43310666443 Dipole_moment: 7.924
 S          -1.81976962259806   -1.53917256756487   -0.03737458014561
O          -1.50560883304200   -0.42036371189461    0.90078422708827
O          -3.21859333334836   -1.75725940891506   -0.17744919570711
O          -1.21736954832776   -1.06102930306663   -1.42593625509417
O          -0.99721411600317   -2.68867283465817    0.30124092008739
H           0.39434066406318   -2.31895655808252   -0.28821297345037
H          -1.40136045403594   -0.11552871703745   -1.56679809810762
O           1.33428683052405   -2.02091795844249   -0.47719102377100
H           1.72949037381411   -2.71699531110338   -1.00324743133461
O          -0.93561537493790    1.53941444094216   -2.00638186554174
H          -1.04508300951222    1.67431190567217   -2.94843892286882
O           1.45337926595274    1.83741728296228    1.15249436990152
H           1.84114372613005    2.63691145339919    1.50885508908033
O           1.46727188665048    0.62852562968232   -1.39618538329102
H           1.36369051882229   -0.32018046860088   -1.20704106032776
H           0.00596698386395    1.25184164624690   -1.86961743396908
H           1.64962324602358    1.05862504015250   -0.54740085369477
O          -1.06567450138409    2.19688254230603    0.66633778951637
H          -1.40380318758588    1.29944614983976    0.86160582858569
H           0.48201688204121    2.04729951717440    0.98103598881773
H          -1.15877842846354    2.27769631498807   -0.29408672379769
N           0.83935248730583   -0.70455782800193    1.80553292308233
H           0.89276768139461   -1.10447600350587    2.73480225913964
H           1.29825641860183   -1.31027740166871    1.10299825214624
H          -0.21806703757643   -0.62443516482074    1.47055454954131
H           1.23535050162106    0.25445130399928    1.75911959411830
