    26
        -50.45004762  Gyration_radius:  2.5382923912 Dipole_moment: 6.004
 S          -1.93223509863053   -0.84233640420660    1.55787344551961
O          -0.76424060859647    0.00919181678710    1.61632620213518
O          -2.69669117726402   -0.98536270587404    2.73750098802670
O          -2.84132159008992   -0.34108010700862    0.40529303818651
O          -1.47643327730944   -2.24652854755838    1.07845155484836
H          -0.71253632378044   -2.17315958855998    0.43893077820170
H          -2.34771502459665    0.21628312678764   -0.26143297682125
O           0.59956172435599   -2.15970682866923   -0.47277848893709
H           0.95470653953331   -3.04826202816902   -0.52772696266988
O          -1.71158624455648    1.09649293738025   -1.42856020435093
H          -2.32429965072085    1.11400163757982   -2.16547604537081
O           2.07485251862115    1.66516945597380   -0.72648065841633
H           2.47413358832787    2.43489201173400   -1.13327034024984
O           0.49680719431148   -0.00769294034197   -2.19054603613036
H           1.16769715597577    0.55421709430131   -1.75194088935220
H           0.52469012124312   -0.85771093656011   -1.72257679972377
H          -0.86816889733245    0.65963506285986   -1.76670745113975
O          -0.15273860654544    2.38817290223317    0.49324767165266
H          -0.33937941107553    1.62423664149998    1.06778349900055
H           1.28627286637152    1.99685975968055   -0.21947661694558
H          -0.80947581613029    2.31785853253227   -0.21176607331850
N           1.98194601699736   -0.65799793651206    1.10037269061523
H           2.66842431839828   -0.94690575803814    1.78411687186600
H           1.22058023816890   -1.61913314303874    0.14684245008394
H           1.16253608799366   -0.30428683730598    1.59055134899080
H           2.36461335634315    0.11315278249816    0.56144902430631
