    26
        -50.46846776  Gyration_radius:  2.39953033208 Dipole_moment: 5.640
 S          -1.28359381912866   -1.23532105845607   -0.37310456979244
O          -1.48940999428904   -0.41471089616279    0.84518266939130
O          -1.57948850249324   -2.62300231551993   -0.14063382010693
O          -2.26139458583558   -0.67464176486377   -1.44942598225209
O           0.07531571966611   -1.03080869894219   -0.86174044448918
H           1.32350704430089   -2.99336510974021   -0.22934084317210
H          -1.92933422023154    0.22767428479087   -1.67418314624065
O           0.90080787765221   -3.16095150214610    0.61845190476140
H          -0.06082565425040   -3.14884328630637    0.40299126020196
O          -1.40781899721671    1.81432909718897   -1.85981032274825
H          -2.16433223149092    2.33174527813025   -2.14131513033530
O           1.87552748966508    1.44288268293407    0.79099044036444
H           2.74390029574843    1.83885218860075    0.87325985565694
O           1.33961191621345    1.07461590199290   -1.72513397811034
H           0.93201278959107    0.20010629125805   -1.52994439469937
H           0.60271821031184    1.60123098714490   -2.05627441961126
H           1.71752711287082    1.32857978312495   -0.19402162823742
O          -0.90347048715085    2.15508598995126    0.67917445356123
H          -1.23500409002635    2.06087709599671   -0.90782632283567
H          -1.23570729115331    1.24691866268525    0.85112001173344
H           0.04907724370888    2.11604935349231    0.84159152296300
N           0.82716409678107   -0.82918563081829    1.87726300415317
H           1.03268082478776   -1.76415725803336    1.41533297611042
H          -0.18790648074959   -0.63136904247636    1.58345571060937
H           0.92226102296846   -0.87992826155288    2.88622818889440
H           1.39617470974549   -0.05266278227554    1.47771302422243
