    26
        -50.46907327  Gyration_radius:  2.4765590992 Dipole_moment: 2.903
 S           1.70514831711495    1.40520300217072   -0.32140050659081
O           1.65727456688138    1.28928557213263   -1.75939391999722
O           0.74510844493243    2.37143942717379    0.20058340368296
O           1.60869519602201    0.12870586695891    0.37165874479747
O           3.14491510828783    1.97056091726046    0.03357794948361
H           3.21607882966609    2.68554344100929   -0.58971325736983
H           1.32048749811103   -1.23977298068919   -0.49017039740996
O          -2.40475138340316   -0.10673172795519   -0.61253694540404
H          -3.21297172039527    0.01466345003053   -1.11180499187406
O           0.08944938808973   -0.74723898317904    2.43719268061559
H           0.85339138408091   -0.52267499680106    1.87665664545128
O           1.05395589886407   -2.05642192179042   -0.97648431197634
H           1.85638607937187   -2.55899235208195   -1.12082579272169
O          -0.46234240732960   -0.18918630458354   -2.32140147144522
H          -1.66159593155270   -0.09832276495138   -1.28838684560156
H           0.25861132588696    0.46745539846559   -2.21986102823972
H          -0.03324412415194   -1.03562455889005   -2.12146022341730
O          -1.15347883671856   -2.31775417177811    0.67418426434360
H          -0.40912982182476   -2.42919484564012    0.06001473913399
H          -0.36718122305148   -1.47818638757317    1.95639042548157
H          -1.74823808171068   -1.68613527605288    0.24569347461659
N          -1.23853732141341    1.24314459848483    1.42929100822594
H          -1.82523525124387    0.80906769807061    0.68854302684450
H          -0.76491485647798    0.44921401967430    1.98803852530364
H          -0.44683027792681    1.77246152617116    0.94842712031562
H          -1.78105079000865    1.85949235439697    2.02318767375837
