    26
        -50.46907335  Gyration_radius:  2.47652439356 Dipole_moment: 2.902
 S          -1.29288306768915    1.45195880544585   -1.09792785177907
O          -0.50467656943641    2.59784439711440   -0.71157103792756
O          -0.74614640679273    0.75350094653389   -2.25585470929486
O          -1.56737043399012    0.53473038854391   -0.00135425207886
O          -2.70877546086904    2.01366575024308   -1.54333162973204
H          -2.44716621714362    2.73395883472162   -2.10655164834283
H          -0.86878983757031    0.79198816221007    1.46322580880075
O          -0.38532435022400    0.87472524729190    2.31985117487107
H          -0.99371073558763    1.28585814753441    2.93473128928961
O          -1.34269141736027   -2.15209347270067    0.26590074168440
H          -1.70362489721915   -1.24782203422010    0.24883655356436
O           2.37278085222072   -0.73218863473774   -0.07061740786346
H           3.32215769868220   -0.69712229416911   -0.19168106810751
O           1.60255777376231    1.65269964948164    0.57718856428719
H           0.93204545120375    2.08392935394337    0.00651974784715
H           1.13517086829538    1.50994756121073    1.41487324311901
H           2.08916939023842    0.20758975202503    0.14248667086845
O           0.64143238658360   -1.67489066456245    1.98512103343554
H           1.37050346479016   -1.47514564009453    1.38114998490799
H           0.32597392645095   -0.81299852518029    2.30337843990184
H          -0.70036355365001   -2.15077764982621    1.01512321615313
N           0.30990998030624   -1.53138332424296   -1.63796250146433
H           0.46188328300381   -2.15886016687525   -2.41904144783289
H          -0.11697123416869   -0.60950202540190   -1.96353534553853
H          -0.38300513546269   -1.93761608412520   -0.91570004149548
H           1.19791425163525   -1.31199650003292   -1.14325752726755
