    26
        -50.46907339  Gyration_radius:  2.47649926688 Dipole_moment: 2.901
 S          -2.09130509850925    0.65692918036881    0.42390030123716
O          -2.42313763410413   -0.53939440533112    1.16024410676722
O          -1.39937526830863    1.64920061348993    1.23891546920025
O          -1.38197771507118    0.39947077201813   -0.82098450797493
O          -3.47068700385952    1.31467564595948   -0.00444283597697
H          -3.95200327405299    1.27245303830771    0.81463626473365
H          -0.91508609176259   -1.13354641127414   -1.18329669056849
O          -0.54344580576956   -2.02817818593578   -1.37276639015731
H          -1.13992381630304   -2.44143432639433   -1.99777069795928
O           0.86624117630742    1.43744891169718   -1.92107876455775
H          -0.05545394807114    1.15373091033515   -1.78601051057871
O           2.02136314164296   -0.58744418898616    1.31938218947658
H           2.56360038281882   -0.91522446138577    2.03749576577196
O           2.00010749233786   -0.94211231604739   -1.50639002141902
H           1.19235720092111   -1.47791724537380   -1.57041388030793
H           1.38176301998047    0.59736096151777   -1.97029736453101
H           2.20202934016169   -0.89287329689585   -0.56137801039460
O          -0.18684295078141   -1.93745954154938    1.35800166189799
H          -0.23356120156176   -2.30244800577809    0.46066859027309
H           1.15689528647668   -1.09612660187097    1.37473096804925
H          -1.02417478740588   -1.43574511058495    1.44944772189709
N           1.10945728127294    1.87034591103368    0.62733795157572
H           0.08448957779662    1.83905008500638    0.92177256509957
H           1.56928971271723    1.01066651457402    0.98906257840890
H           1.10756625343576    1.81902865362954   -0.45165011000878
H           1.56181472970062    2.70954287946480    0.97088364002283
