    26
        -50.45730962  Gyration_radius:  2.44896593755 Dipole_moment: 7.976
 S          -0.78380576337956   -2.25517139560702   -0.39458255363438
O           0.10961014695278   -1.80751760078539    0.71848921802605
O          -1.35372928813034   -3.53393782448643   -0.15951752220086
O          -1.71281951253911   -1.18395672980932   -0.72802783916726
O           0.19977476757885   -2.33794316595201   -1.63951787557636
H           0.19060195793215   -1.42336589312915   -1.96936707350497
H          -2.18212020394106    0.03545018039563    0.11864552339068
O           0.55185033497877    0.26310273136864   -2.32668237868060
H           0.26512394135291    0.44081314979209   -3.22302509452956
O          -2.42171048537695    0.86359964031416    0.62479072301337
H          -3.37328573764508    0.94557934715768    0.55460902994669
O           1.38626195857372    1.69304140248251    1.43417921336584
H           1.80574415880152    2.19486790011869    2.13322225892195
O          -0.39254755680641    2.08612293026644   -0.71474328555002
H           0.10665206894399    0.95257260969970   -1.75256444565385
H          -1.20682861428395    1.75541862487082   -0.28906243498779
H           0.25577998584130    2.16360780042868    0.00047095659639
O          -0.46791599971881    0.19059347073711    2.39660714515007
H          -0.29265356635198   -0.65709637270129    1.93761764044854
H           0.66017043968065    1.14254289103346    1.87760276744995
H          -1.28667093308693    0.51944462217590    1.98668481076665
N           2.02709008244305   -0.40196673903330   -0.12711038658612
H           2.92733095922855   -0.86439617727952   -0.07579388289003
H           1.99037427425141    0.45598487259246    0.46537404911954
H           1.78185056032538   -0.16269794350622   -1.09689948348677
H           1.21587203424676   -1.07469232098415    0.24860091025766
