    26
        -50.46788075  Gyration_radius:  2.39861999544 Dipole_moment: 5.649
 S           0.91411634785448   -0.75062526743166    1.36445888327682
O           1.46163016992517   -1.05069311450990    0.02036259620765
O           1.95111343541226   -0.45846708622131    2.31684164433662
O          -0.05898938134030    0.33061762565934    1.25461698770166
O           0.14674690246084   -2.02924310888809    1.82224698977551
H          -0.63292895596134   -2.11818239104417    1.22347231192894
H           1.05851226785859    2.33107557236973    2.10109493007720
O          -2.00332710281266   -2.14782084105278    0.24924335082629
H          -2.69406740033431   -2.61440857525142    0.72269117386689
O           1.92826636748864    2.12784330342742    1.74457574873209
H           2.10007415384333    1.20923578240277    2.05828004132820
O          -0.82760416894625    1.11945116304525   -2.06273645290722
H          -1.01230546552525    1.33584266789564   -2.97755505658704
O          -0.33764163427496   -1.43889347115395   -1.87374018309026
H           0.40715212573868   -1.41314886938962   -1.23328582833144
H          -1.03894838466428   -1.90822490381842   -1.40419688301193
H          -0.67760191660391    0.12969795714225   -2.03569987650990
O          -2.43917773229932    0.42236439908061    0.19009516616647
H          -2.19410909285110    0.80592030158455   -0.66235962968010
H          -2.27925299706968   -1.18518437418999    0.21991126290804
H          -1.61822478376093    0.50602484807964    0.72395947806255
N           1.57834629528281    1.39054139015895   -0.77876090733583
H           1.63688757298092    0.34174922956212   -0.54748475834159
H           1.67253267472905    1.85139866444897    0.17454029171066
H           2.31994360105514    1.67925970357126   -1.40843386144596
H           0.63885709182413    1.53386941452731   -1.20213741965286
