    26
        -50.45025670  Gyration_radius:  2.47524150502 Dipole_moment: 4.758
 S          -2.22668932994990   -0.95868824667464    0.02427893766945
O          -0.87480802712813   -1.46651155559179   -0.04968053383662
O          -3.18348107498145   -1.81276107356885    0.62421970823181
O          -2.17777395424061    0.42221652308003    0.73983782802351
O          -2.68884376609078   -0.54231171341276   -1.38567778613128
H          -2.03140712488472    0.15384330811367   -1.66792046896546
H          -1.41377571644351    0.50066404277055    1.38880353283884
O           2.64018040073565    0.21132056566377   -0.60782706768569
H           3.35892986183122    0.50933692963096   -1.16656658577883
O          -0.95649846038550    1.28727875248324   -1.97618209274297
H          -1.42719622644583    2.08174308835147   -2.23473635160530
O          -0.21837469522894    0.70614098946715    2.37964855933280
H          -0.51740568892364    0.58989860464893    3.28248276415426
O           0.78304562494189   -0.94065772068418   -2.09603567753662
H           2.02024872034000   -0.29331008874349   -1.19637364845370
H           0.20206526179849   -1.28615019911826   -1.39149628428618
H           0.29060396287857   -0.20673526838808   -2.48168058004580
O           0.63050803392894    1.95751691172839   -0.01773460684581
H          -0.38461874839695    1.55074389293534   -1.19486673742931
H           0.30931288044273    1.74966269273115    0.86798204631502
H           1.42184721053009    1.39728646575468   -0.15248630129322
N           1.38301911001009   -1.20077085969445    1.68708476562087
H           2.10877832975803   -0.80949098100255    1.09445247463489
H           1.79768537673258   -1.90918522396955    2.27753385081196
H           0.45081794904462   -0.04645304469124    2.18026326153275
H           0.70383007012764   -1.64462679182181    1.07267700345912
