    26
        -50.45284139  Gyration_radius:  2.44714514909 Dipole_moment: 3.822
 S           0.99168309728477    1.46378770255583    0.17164509474090
O          -0.15929579274736    1.09263275772701    0.96912419356709
O           2.25181029277922    1.13766045403207    0.73730616623677
O           0.82000560731369    0.84297935146788   -1.23512842397093
O           0.91235263229737    2.95847374420545   -0.15809729525080
H           0.09162029908941    3.05602319043839   -0.72889221596720
H           0.89538980890226   -0.18511545978565   -1.24057212512095
O          -0.65794661626715   -1.39718392432152    2.11525412094807
H          -0.58895924564248   -0.44111633773478    1.99293805394797
O          -1.14572365696715    2.85553775904315   -1.70546368335912
H          -0.74269498352516    2.48378104585603   -2.49417560911225
O           0.84564246254186   -1.67103431312744   -1.32343732411594
H           0.80436142175604   -1.95431218194921   -2.23926727842607
O          -1.49867131472387   -1.91322050536067   -0.32598948606668
H          -1.28200274321712   -1.86133713737930    0.64307080955268
H          -1.94359918385636   -1.07780572250408   -0.53097189464255
H          -0.07484861206921   -1.85336704273671   -0.92795825529097
O          -2.33194473173784    0.79905961904702   -0.41552034335637
H          -1.53964083072693    0.87731041100750    0.17182479753660
H          -3.09549663186461    0.96962496284986    0.14001149691076
H          -1.70983082533587    2.14521341456817   -1.32957681179034
N           1.97455149128120   -1.69883582837722    1.53904852422330
H           2.72480746747150   -2.12441988712932    2.06909122715250
H           2.18902044265807   -0.70955741883012    1.43945274016386
H           1.99228522021821   -2.09455024588201    0.60598470597028
H           0.27712493502244   -1.70022842752928    2.06029880546016
