    26
        -50.44023227  Gyration_radius:  2.54293320536 Dipole_moment: 6.124
 S          -1.46138686737710   -1.57788512406213   -1.30567381994894
O          -1.56825830745992   -0.83978418798371   -0.07696711111696
O          -2.66690956587028   -2.02882881600021   -1.89902075630512
O          -0.64167431500827   -0.68931174080990   -2.30451388878822
O          -0.49916178098510   -2.77267639231980   -1.11540933326856
H           0.39692017721330   -2.37745198288928   -0.90045348573717
H          -0.78607003553691    0.25197470001126   -2.02932811967642
O           1.79430696581107   -1.67275819922067   -0.68223326056844
H           2.31746445338921   -1.87765308593042   -1.45975264236460
O          -1.05423985734828    1.77533110560334   -1.54802224375888
H          -1.89076128370324    2.00040144433415   -1.95928258199141
O           1.00637847019107    1.28827044282691    2.01951311717472
H           1.60466739172866    1.45487001766375    2.74829294498833
O           1.62042295630066    0.95781300605832   -0.62884115600491
H           1.71580077989126   -0.68000523129221   -0.66624611876786
H           0.86413148240729    1.30504153807990   -1.11290328710161
H           1.46269406478145    1.16354316077034    0.31208456990232
O          -1.19188544928209    2.51635520459800    0.99557213656090
H          -0.49186677222951    2.01550224929747    1.45548725822724
H          -0.96083701015405    3.44368105241649    1.07893886698259
H          -1.18464799943379    1.92309961065356   -0.57579920168193
N           0.32088761307036   -1.22862960321344    1.97758888706521
H          -0.01374748814185   -1.75638221228153    2.77325857917897
H           1.02510664050046   -1.78252387057259    1.50392095996682
H          -0.45943763992339   -1.12193564480546    1.32492506889736
H           0.74210337717153    0.30994255907477    2.07486459813730
