    26
        -50.43947792  Gyration_radius:  2.63510336569 Dipole_moment: 7.869
 S           0.92661593637181   -2.10561958238807    1.54121099752805
O           0.01939408155533   -0.99099406388699    1.57072075881076
O           0.89284529520182   -3.02638478701125    2.61652604099976
O           0.72496334759567   -2.85756464592988    0.19011611021873
O           2.37563653311832   -1.54846273385952    1.39905416199134
H           2.30598914539736   -0.75467995562303    0.81907494577122
H           0.00918148737457   -2.42964998404914   -0.36377150219372
O          -1.01184945726855   -1.84000941298430   -1.44135164408898
H          -0.92433746951128   -2.40390567149884   -2.21236602842207
O          -1.37278408301839    2.18035503619187   -0.58560306344128
H          -2.08576657264206    2.77267183608358   -0.82552317366084
O           2.27760067768378    0.59895329023687   -0.13499656391496
H           3.18786096738231    0.89668615138135   -0.19159306584059
O           0.19961827262781    0.41602964868492   -2.00453273121679
H           0.99318604015812    0.38943480989527   -1.44904856911853
H          -0.58310299788963   -0.97178821342309   -1.68173104808070
H          -0.36543879067309    1.10811308718842   -1.61720734861973
O           0.90778659108751    2.66767893189297    0.77580869992361
H           0.02432653059091    2.49031203336327    0.39062939447012
H           1.77133824232673    1.31443169849307    0.33033540265713
H           1.16980665268743    3.53531907339253    0.46282612749831
N          -2.37778023356361    0.05110905923985    0.51917591927134
H          -1.80330769401113    1.37735129040601   -0.12721890639757
H          -1.54845292048327   -0.26853590877671    1.02330962759729
H          -3.14839478904185    0.05885002188345    1.17531701504227
H          -2.56493481305607   -0.65970101890106   -0.17916153678428
