    26
        -50.44534753  Gyration_radius:  2.53751914865 Dipole_moment: 7.416
 S          -1.31749014135049   -1.75852474302135    0.47722185232142
O          -1.31175386504670   -0.46796010098975    1.30461868463266
O          -2.57679460128977   -2.40483351686499    0.45814592184084
O          -0.75265187415542   -1.46604399104711   -0.83453814401518
O          -0.28545262763543   -2.60836762832442    1.25281094811669
H           0.50423014748408   -2.00954061609415    1.31568885316371
H          -0.72561567864303    0.00942953635816   -1.48547537670499
O           1.76788642150878   -1.01290564433723    1.15106118220426
H           2.51682217921601   -1.23047812636548    1.70938106057302
O          -0.69768995684870    0.94141243698707   -1.81447149401033
H          -0.97476786348619    0.91288748669564   -2.73130911708612
O          -0.65021458562656    3.22649744873542    1.43935191728784
H          -0.47168125705136    4.11667341957938    1.13362305447304
O          -2.36016251189266    1.55397771714817    0.25941757140946
H          -1.88235774408038    1.52056797752123   -0.59037313883747
H          -1.83744563384869    0.33359967630218    0.89797546118442
H          -1.89855191248269    2.24425103987616    0.79070824501746
O           1.13378513156569    1.60776823913140    0.24959162392622
H           1.24211476037951    0.76208483751300    0.70762222796301
H           0.62028275592660    1.41920701887571   -0.54770430517252
H           0.09703799478853    2.66926401683006    1.12543634277435
N           2.04550573921519   -1.70829107621849   -1.36964988169031
H           2.36345437316200   -1.02737192770530   -2.04743284400880
H           2.41332806374628   -2.61266084492908   -1.63488131665268
H           2.01092955508358   -1.25581163577754    0.20513904069198
H           1.02725313135866   -1.75483096987205   -1.42195838940475
