    26
        -50.45406784  Gyration_radius:  2.52779772243 Dipole_moment: 5.873
 S          -1.63646224914008   -1.43471751729637   -0.73681363695185
O          -2.52849363281817   -1.60951151565680    0.37807556545716
O          -2.03826871265407   -0.34483125126294   -1.63681991154746
O          -0.23418890005675   -1.31816455254914   -0.39526864547732
O          -1.76220844224905   -2.76832391271468   -1.60892280546974
H          -2.63678721015566   -3.06734975881141   -1.38142555428316
H           1.09143553283765   -0.82406588135375   -1.08566721012311
O           0.00510487288850    2.17890765979340    0.70215238671221
H           0.06594874897995    3.00159086383734    1.18858736107998
O           1.83743416707829   -0.37497327057837   -1.57124517803964
H           2.31363523180935   -1.07148392056364   -2.02463558618984
O           1.29273147550142   -0.92191535227645    2.62739026207668
H           1.35543814770904   -0.79329361590218    3.57492358927954
O          -1.18056061237992   -0.05066037056273    2.11285570605897
H           0.34911088541065   -0.74691905548881    2.39640970618809
H          -0.97833494887639    0.72089027529619    1.56742403037599
H          -1.70543175383410   -0.65359787782728    1.55666259815389
O           2.22750493457030    0.89618423898221    0.92365037593697
H           2.30003970587841    0.43560341535815    0.07520372460188
H           0.88518109843469    1.69900671624772    0.84328979564949
H           1.99427876284873    0.19292645989371    1.57542288927831
N          -0.19299023821220    1.39818408725510   -1.84025986465611
H          -0.33569120363825    2.07040844496929   -2.58529149652126
H          -0.16951088218355    1.85550014877332   -0.89811668069035
H          -1.00626307092272    0.66733519563452   -1.80068640893699
H           0.68734826316346    0.86327034683491   -1.95689503196360
