    26
        -50.45123053  Gyration_radius:  2.47082060255 Dipole_moment: 4.661
 S          -1.96607035831802   -1.32360016336667   -0.36622059554010
O          -1.53192070351902   -0.37016588600851    0.63073424234761
O          -3.35859902526540   -1.56831010145399   -0.43521728176757
O          -1.40485604709815   -0.85811126234910   -1.74345659524079
O          -1.20273161938053   -2.64417070656807   -0.16136917825121
H          -0.23581060362281   -2.41534288662502   -0.31232674905612
H          -1.25230383789128    0.13019196585527   -1.77240038352146
O           1.23474904701853   -2.00200803718852   -0.65645700879502
H           1.47851306801233   -2.48209796079583   -1.45038864350304
O          -0.93472800620969    1.68239166367485   -1.84218845118095
H          -1.61799115300025    2.16017158832771   -2.31474151472531
O           1.66673246691757    1.62927216219662    1.24104618601060
H           2.41828908127836    1.96904085565277    1.72712476316299
O           1.58441486863349    0.52530490142627   -1.26200619688552
H           1.35010464053492   -1.03532994905947   -0.88178258177898
H           0.82493473383774    0.93907778552568   -1.68994409263881
H           1.70335947556765    0.99691058371313   -0.41603130450726
O          -0.95456192793637    2.26051603135607    0.66753270765022
H          -1.30651894352141    1.37811385211363    0.87843593505338
H          -0.02119150865880    2.23131074195140    0.94133068527502
H          -0.95854315243360    2.00842372787907   -0.88629102715145
N           0.89952960844896   -0.74590720106608    2.09935127301007
H           0.82881314740180   -1.04931709023618    3.06208352849813
H           1.37677950442960   -1.47042308941489    1.57537051096417
H          -0.04575392047203   -0.68778874473116    1.72033193044873
H           1.42536114523801    0.74184721922570    1.64747982211212
