    26
        -50.45123050  Gyration_radius:  2.47032382269 Dipole_moment: 4.656
 S          -2.12891692380830   -0.63000417577999    0.90263782433662
O          -1.02529750573730    0.19529723143583    1.34094471717498
O          -3.37012689171905   -0.41048828989504    1.54678899320429
O          -2.25747225970879   -0.46918058214786   -0.64191265541687
O          -1.72334982367916   -2.11015592411049    1.01782376458019
H          -0.95116842379873   -2.22108759206882    0.38420249673298
H          -1.90534007492654    0.41216319044711   -0.95873311049892
O           0.18137875599567   -2.33565763885473   -0.69099141306798
H          -0.14540152414454   -2.92256918803107   -1.37583482294562
O          -1.30001478388103    1.76838431581893   -1.51304760979502
H          -1.98778477969530    2.40896004648439   -1.70024627301669
O           2.40916727041052    1.07368304887188   -0.08527094205291
H           3.36026454374639    1.18250950499580   -0.09584744459220
O           0.78019399087119   -0.10845732278469   -1.93968911346332
H           0.39810165198802   -1.47748026378938   -1.15461892503602
H           0.03939554672913    0.50112676610897   -2.04302082281065
H           1.43014952197971    0.35437802366570   -1.37795177480524
O           0.12023351651506    2.48782150705111    0.51132605136120
H          -0.27907630340669    1.78589183208677    1.05428592066903
H           1.01969230217442    2.17277778662972    0.31428333497159
H          -0.74579790139625    2.14743915474373   -0.75820494122923
N           1.63303991490610   -0.85403112198333    1.54169954610001
H           2.20014241980447    0.34400002751107    0.57439364848208
H           1.99585314636390   -1.04989722067623    2.46574284086660
H           0.67633098527269   -0.51607963311692    1.64726879010896
H           1.57580362910799   -1.72934348261447    1.03397191013054
