    26
        -50.44023240  Gyration_radius:  2.54381875848 Dipole_moment: 6.131
 S          -1.73518525303707   -0.85349170506496    1.61258282859597
O          -0.68031446760343    0.12249010223209    1.63806465861743
O          -2.75043972278014   -0.73823685337849    2.59465800612632
O          -2.34556055431998   -0.83079719344953    0.16821281250163
O          -1.13172365138945   -2.27611902826088    1.65600763516136
H          -0.58070895459018   -2.37033706174229    0.82380689772780
H          -2.18296912634383    0.07774149675761   -0.19322960917615
O           0.16905100753337   -2.47702439163381   -0.56363111531053
H          -0.31543209901786   -3.12623129135696   -1.07757743454328
O          -1.90375882240383    1.57705974211086   -0.74048849580366
H          -2.62797283603863    2.08995228727101   -0.37721583367298
O           2.20907943489154    1.04999509724321   -0.88025768390544
H           3.11356529216742    1.06892918695616   -1.19391878777082
O           0.05396466758932   -0.24704284385388   -1.96606605734806
H           0.11631139858164   -1.62970150557696   -1.08444191189826
H          -0.70792618211774    0.30297427759787   -1.75653233986465
H           0.84121856885263    0.25242061204681   -1.67785874254215
O           0.33464026357370    2.92511169228347   -0.28455361929282
H           1.05757432584218    2.27464721528784   -0.36824102987683
H           0.46998792607037    3.57140623887312   -0.98038357342554
H          -1.07502694503464    2.02392277627393   -0.42792750322286
N           1.98013895315825   -0.63504695087395    1.09815419222330
H           2.58773506671799   -0.67387244731240    1.90619504480196
H           2.18618272249461    0.41288870518288   -0.09042188069457
H           1.85517498978617   -1.57876959552292    0.75049536224420
H           1.06239397743197   -0.31286859211129    1.41456817034495
