    26
        -50.44974531  Gyration_radius:  2.55342010034 Dipole_moment: 5.642
 S          -2.10020696054460   -1.30449392994749   -1.01026409564018
O          -1.76995139778611   -0.55015650054005    0.18018944510165
O          -3.37568861282628   -1.90946339766722   -1.06420956042080
O          -1.92093484524360   -0.37643341946746   -2.24005918690163
O          -1.01167659026682   -2.39298499336181   -1.20381725436436
H          -0.12512955962831   -2.10159761902062   -0.84314235090497
H          -1.20318191766956    0.30104759999310   -2.09248773762648
O           1.28712498670010   -1.81004418979810   -0.16381030987343
H           1.75465479006377   -2.64121100519354   -0.06668357850505
O          -0.19027875185357    1.52918581967676   -1.88129498882896
H          -0.43302797227391    2.21991927073448   -2.50025070410648
O           1.38890754061089    1.70123916787341    1.68136590023807
H           1.90279207480012    2.47544638428825    1.91360345740574
O           2.19028091275786    0.75314364340058   -0.66380074674553
H           2.03029506349934   -0.20030938374154   -0.57769234546183
H           1.49257157488120    1.07062384158032   -1.25714853814329
H           1.77341477376442    1.35628657638893    0.83407754067008
O          -1.04530693063857    2.02805936837293    0.48546113465756
H          -1.47059104210791    1.15345662739789    0.54054411310336
H          -0.24501104786591    1.96970107711297    1.04494542123015
H          -0.52249354360501    1.82579555175599   -0.97036889694130
N           0.31191486975090   -1.02241418620755    2.09569428443689
H           0.70174197559753   -0.11027319336390    2.31296262088672
H           0.96344920768834   -1.53371717542693    0.77204707251242
H           0.23991697392266   -1.55600279610342    2.95134709116150
H          -0.62358557172843   -0.87480315873503    1.72279220306387
