    26
        -50.45004515  Gyration_radius:  2.53767136211 Dipole_moment: 6.014
 S           0.80465313989804    2.31438756929846   -0.92443715018304
O           0.23875428185873    1.07386666356749   -1.40765149432289
O           1.05875897124899    3.33003054432068   -1.87334266850602
O          -0.11644141671633    2.86269361843042    0.19719710543558
O           2.12413740953303    1.98058503175821   -0.17888701299670
H           2.04121687251420    1.11217122227939    0.30703210561937
H          -0.73610448452860    2.16940579740606    0.56442405755289
O           2.04165436603520   -0.33670062815653    0.98431916008517
H           2.93497306381966   -0.56383173438741    1.24716269121690
O          -1.33348885038898   -2.41157919108930   -0.11956923206492
H          -2.08121796216280   -3.00179638255172   -0.01975138935368
O          -1.76360116923235    1.19020677911519    1.28811437288409
H          -2.09631169484719    1.62932058577649    2.07252567456970
O          -0.45708784530576   -0.92543174370590    1.99093448392588
H           0.47083613746363   -0.72099155157946    1.79202329542754
H          -1.26492763348203    0.37364092019654    1.60602557471518
H          -0.73449225066599   -1.57159034991789    1.30990676538496
O          -2.16837173142196   -0.12382726342706   -1.14062117816071
H          -2.41945577876912    0.37704494822072   -0.35364204530602
H          -1.33940633751649    0.29529177421981   -1.43280418280278
H          -1.68099224029676   -1.59806021545309   -0.57387851399207
N           1.30883667950851   -1.58052193872272   -1.15029481350851
H           1.81734854332723   -0.89474793687882    0.14768160626169
H           0.92898095137404   -0.74195877909503   -1.58564623938851
H           1.89880597092008   -2.05416912016405   -1.82096825001687
H           0.52294299780345   -2.18343861946195   -0.92585274245809
