    26
        -50.45730965  Gyration_radius:  2.44894809511 Dipole_moment: 7.980
 S          -1.99034710527446   -0.02696919545001    1.37608865337247
O          -0.73099091823970    0.73232179082319    1.64974846901683
O          -3.08701736620382    0.43263542479199    2.15157293989653
O          -2.20292634032604   -0.10609137396603   -0.06269912668295
O          -1.62277170575400   -1.51005542018627    1.81156719738112
H          -1.20668847415113   -1.86334750110316    1.00697007939918
H          -1.64253889413933    0.78742521699133   -1.20807997946802
O          -0.07633837640396   -2.39302033958049   -0.23554704320056
H          -0.44950292828382   -3.16463244872551   -0.66280712150008
O          -1.21995151341881    1.30397782163791   -1.95236374135535
H          -1.93285087616546    1.52845170752529   -2.55114997894148
O           2.43340751185122    0.85327605767317   -0.43990440858642
H           3.23833532153986    1.36352346291703   -0.53021298493312
O           0.66810399392599   -0.65446672779145   -2.03466475778847
H           0.12654678344825   -1.74206649079667   -0.96924831939113
H          -0.03118059902425    0.01747691843568   -2.14906329440997
H           1.41655684769073   -0.17976712501996   -1.64422541601739
O           0.41788329769004    2.41259887984329   -0.08210988291253
H           1.68422067905065    1.52528777722689   -0.32165949293797
H          -0.14847607202724    2.26176326564752   -0.85867593538822
H          -0.05243304199385    1.96183145037487    0.64970652371131
N           1.31324434099325   -0.72974098162785    1.42492294430166
H           0.98513703022285   -1.58613605117248    0.95918889509280
H           1.93451891314123   -0.19586296086474    0.77890858162191
H           0.40943961696376   -0.09041738356533    1.58676278764831
H           1.76661987489002   -0.93799577403777    2.30697444207252
