    26
        -50.45123062  Gyration_radius:  2.47048425431 Dipole_moment: 4.663
 S          -1.93416872607038   -0.33591983457749    1.37551739469105
O          -0.75013598701289    0.49169622902125    1.44170048568793
O          -3.02696368771069    0.06776434376547    2.17958943159726
O          -2.34774584639089   -0.45337865683795   -0.12232819524136
O          -1.54614518630923   -1.79049742909253    1.69480924382078
H          -0.90736194683380   -2.05766347794592    0.96630365532034
H          -2.04421719114313    0.33404181624972   -0.65967700563310
O           0.00266915563184   -2.42914978287247   -0.25241893483771
H          -0.45723723755284   -3.11367394390922   -0.74248528600145
O          -1.52576373244397    1.52989103508730   -1.56278755058983
H          -2.22278368437405    2.16242929854168   -1.74322219731294
O           2.37069654400562    0.90720504866713   -0.72277723116351
H           3.30410788230380    0.95609631089764   -0.92995200283306
O           0.39951505420679   -0.50539610676917   -1.98998567316450
H           0.14497226021805   -1.68373617268903   -0.90245286294631
H          -0.33560625248254    0.11417261203034   -2.07248437240291
H           1.15197373120463    0.01715152911146   -1.65354210479827
O           0.26170272475928    2.52895478279641   -0.00073740891095
H          -0.04187534214271    1.95992215636642    0.72805154637061
H           1.10227157977254    2.13580126553429   -0.29368760513894
H          -0.83297703108439    2.00999414716045   -1.00591685529997
N           1.87871756770692   -0.64502042966209    1.35432023093842
H           2.40466543823680   -0.68840159449318    2.21768669957662
H           1.70991752330271   -1.59389811841877    1.04060013328100
H           0.96560164667503   -0.24202972322768    1.56522215001378
H           2.27617073352764    0.32364469526418    0.09065430497615
