    26
        -50.45004754  Gyration_radius:  2.53823152983 Dipole_moment: 6.004
 S          -2.28389558101997   -0.68041621978277    1.09003150491353
O          -0.99518270865092   -0.14926640849325    1.47728656045374
O          -3.24055720557623   -0.88312563568871    2.10988554051265
O          -2.87850954999106    0.24085800603926   -0.00736270101879
O          -2.04444273638171   -2.02279607694819    0.34846087471227
H          -1.19083894832585   -1.99529167971354   -0.16976457198651
H          -2.18447382155763    0.79840896960752   -0.46176453377341
O           0.22468908493350   -2.09329353539531   -0.90461714543197
H           0.40056281977006   -3.00794380802250   -1.13077381781971
O          -1.20900368233662    1.73432271913940   -1.30645376265526
H          -1.68014637121363    2.04450219760655   -2.08142485260325
O           2.45389275409327    1.25628379139406   -0.07538686485795
H           3.05862678337184    1.98041567213130   -0.24079404175078
O           0.82796799257915    0.33435076814888   -2.06015642650358
H           0.61062929148755   -0.57751097750682   -1.80799307869477
H          -0.42635021167090    1.19531310875594   -1.64314981038966
H           1.51865625908713    0.62244532202668   -1.42919188302399
O           0.24973676766888    2.20512488956605    1.02680110152059
H          -0.28695453979025    2.43599866971799    0.25743480002593
H          -0.17481585069010    1.40261311341551    1.37931931911346
H           1.67672189584141    1.64852591698713    0.40530879641538
N           1.60839442110193   -1.31092102236288    1.12363581260215
H           2.10414412007374   -1.88576421036705    1.79149400688446
H           0.83411788130097   -1.85145432463060   -0.10964572229237
H           0.80808096446989   -0.88702043395442    1.58913367160474
H           2.21895018140855   -0.55435885166665    0.82968719403430
