    26
        -50.44877582  Gyration_radius:  2.46868264654 Dipole_moment: 6.599
 S           1.40491607148584    1.17738661551511    1.24349407889344
O           0.14011014162958    0.58801504575260    1.61639300459051
O           2.37549856518919    1.32453305638888    2.26021442989709
O           1.96936035839111    0.34188807228346    0.04267627574693
O           1.14322267551011    2.52775752327266    0.55486380867566
H           0.41549358104089    2.43148748824174   -0.13313684947964
H           2.25590738803408   -0.57249498741283    0.38836300442350
O          -1.49523479112536   -1.64070548105124   -0.93839970805732
H          -2.19907508443364   -2.13432711521686   -1.36030959550325
O          -0.59261620857044    2.30872862805219   -1.34365851102254
H          -0.34010826337960    2.97992749760516   -1.98095036326687
O           2.43285137148715   -2.02317520163419    0.81606436412737
H           2.60697606241482   -2.63094353178911    0.09381961001789
O          -0.09510238816268   -2.10603807528710    1.40316642297950
H           1.50178182311937   -2.20661301734180    1.13176313150066
H          -0.11093131033660   -1.17580302131861    1.68979617293942
H          -0.59418852001220   -2.11796474175603    0.56800406799025
O           0.30262280620229    0.00015349337137   -2.15238119291653
H          -0.31335605883538   -0.67992263468848   -1.81538493345807
H          -0.32208854333724    1.42968122847286   -1.73943199432513
H           1.04579257451140    0.01723506528112   -1.53143431336439
N          -2.39451457049562    0.51315097783170    0.27482071068845
H          -3.24210039833299    0.55744566617760    0.82586050692628
H          -1.92149906405141   -0.84253440968547   -0.49047300488152
H          -2.37022216753713    1.32243650526885   -0.33488290129838
H          -1.60349607041570    0.61069535361230    0.91114379818755
