    26
        -50.45212782  Gyration_radius:  2.45281058973 Dipole_moment: 5.977
 S          -1.51153722305154   -1.73387308128913   -0.05209753531847
O          -1.61923252330643   -0.51732889639234   -0.83143421829804
O          -1.83417743690455   -2.93038161130460   -0.74070359795619
O          -0.06945198153404   -1.80222992784713    0.52621810092077
O          -2.32795590996128   -1.58413758607397    1.23620325656435
H          -1.87568355419003   -0.82527855972673    1.72413269611740
H           0.60479907724171   -1.84086949651338   -0.22856981121515
O           1.56221513098793   -1.77445991583777   -1.43406466011331
H           1.36840695801918   -2.52081027162390   -2.00497017585037
O           1.05830136906463    2.26562539588635   -0.66648788809699
H           1.68926915031217    2.98351477233056   -0.72303011773360
O          -1.14580556449445    0.41345764008098    2.32714361472600
H          -1.65903172773245    0.74018497264868    3.06911962201156
O           0.37773455645316    0.28433402951839   -2.45851645192037
H           1.21348751726032   -0.96032309280248   -1.91080961126934
H          -0.47676685197527    0.03716307731834   -2.06197159370586
H           0.65477435151554    1.08563894430088   -1.97980217637380
O          -1.50478330654244    1.93296693410627    0.26734206329349
H          -1.73037536752834    1.15121674667117   -0.26890396982133
H          -1.25980002681713    1.08820717003391    1.58849988709648
H          -0.64997832586056    2.23869492477784   -0.08358169527212
N           1.88491508944664    0.39666850072477    1.02965703236629
H           1.41777839121368    1.60294265862709   -0.00624135880760
H           2.25671751217331   -0.35207183325681    0.45601280856764
H           2.54580484962054    0.57556208155147    1.77559236309387
H           1.03037583657509    0.04558643409021    1.45126343698760
