    26
        -50.44974531  Gyration_radius:  2.55357413571 Dipole_moment: 5.643
 S          -2.19767045713004   -1.49225727409585   -0.28359419669712
O          -1.52773817884679   -0.74895958907058    0.76238876520510
O          -3.34670019684620   -2.23095342778489    0.07675268762343
O          -2.55990230117920   -0.50716523803926   -1.42564706666666
O          -1.16032834804169   -2.44713576071887   -0.93101958504637
H          -0.23386332635399   -2.07146514668410   -0.89283369265425
H          -1.90132705474426    0.23925351374810   -1.49607305714179
O           1.29606815300118   -1.64860096018902   -0.74591003623025
H           1.84038378718524   -2.42548607276533   -0.88392367412654
O          -0.99596739727593    1.56377717187951   -1.57242788600937
H          -1.50847542122881    2.24453049529693   -2.01183879032289
O           1.74503084189083    1.78369553993565    1.19338105141538
H           2.23437938402912    2.60221215438524    1.28276217078506
O           1.72373820179704    1.01464187585073   -1.34614268928905
H           1.69218367086256    0.04689159911326   -1.27880946365359
H           0.83261127394422    1.27412552553401   -1.62597918124462
H           1.82570748680720    1.51397483752802    0.24181728707933
O          -0.97596860298874    1.88112634145281    0.97323550744299
H          -1.27201771675785    0.96373315220980    1.11324480535048
H          -0.02546231891376    1.89154098649756    1.20420481363017
H          -1.00061360857802    1.78943067019830   -0.58393938734654
N           1.14245392899018   -1.05550187241949    1.76429130006775
H           1.43511300110436   -1.62464967966133    2.54690761769705
H           1.31134006411699   -1.44342392816528    0.26142281422522
H           0.12618265849022   -0.99897462729540    1.76324204399321
H           1.50084247668103   -0.11436027673307    1.89448784191574
