    26
        -50.44023258  Gyration_radius:  2.54283015522 Dipole_moment: 6.118
 S          -1.90402414101740   -1.15380432037782    1.16992449406089
O          -0.90853092506357   -0.17636482897331    1.51571417243690
O          -3.05282979575199   -1.23055365511067    1.99642494913210
O          -2.30301957253596   -0.89271538074376   -0.32403920095089
O          -1.24967213842540   -2.55007364478169    1.06109973279045
H          -0.58363791561318   -2.48710972468154    0.31428397440479
H          -2.13561677040442    0.06895191159304   -0.49686724818466
O           0.35668043795152   -2.33560939370080   -0.94665097430456
H          -0.02347533930453   -2.89347436781997   -1.62824336361445
O          -1.85235340912023    1.64665287571034   -0.72990011978488
H          -2.64156409148791    2.07175668675914   -0.38941536319450
O           2.26311968726066    1.22766007541025   -0.35613204496200
H           3.19992674399612    1.31025104057954   -0.53633085867343
O           0.34185091014274    0.10287148358358   -1.94975375602350
H           1.05703653213505    0.55903098785178   -1.46681644077746
H           0.34063962055951   -1.41133741808852   -1.31746810557679
H          -0.46602405215101    0.59245302157980   -1.76426038178335
O           0.24092077173321    2.93402104965305    0.26951677586080
H          -1.09493545221323    2.04641179575574   -0.22934594723775
H           0.99654505167247    2.32241478207415    0.18458575764040
H           0.44543420531896    3.69471702766020   -0.27795489983347
N           1.83177745910050   -0.77911376975991    1.25417568181594
H           2.31944235202923   -0.94479472200723    2.12498546804768
H           1.79970603310963   -1.65095609361267    0.73847961931405
H           0.86491836603363   -0.53432987446004    1.48106706246368
H           2.15768544204433    0.46304446590936    0.30292098693532
