    26
        -50.44023267  Gyration_radius:  2.54280363919 Dipole_moment: 6.117
 S           1.36911654119633   -0.63720040890272    2.01083891075421
O           0.94204640408579    0.58518527877585    1.38687768607138
O           1.78108854542661   -0.56507090996895    3.36501872603979
O           0.20600716430702   -1.67376396326087    1.83173675119428
O           2.48300999745052   -1.29466173648950    1.16442618253615
H           2.06676747999726   -1.51092852363229    0.27829322458085
H          -0.63152592004219   -1.14835270482592    1.75907505123935
O          -0.88821185911625    1.38747294385422   -2.01115398031536
H          -0.94188000220708    1.68435799201256   -2.91990259952095
O          -1.97269950743637   -0.24687288891664    1.65124873003959
H          -2.19774577772172   -0.06568838876028    2.56558629319424
O           1.30370894840608   -1.92145813619943   -1.04334871151946
H           1.27844914418690   -2.88044528014738   -1.04676441108944
O          -1.21957358664897   -1.15541700688431   -1.05125776374606
H          -1.19266213650429   -0.26306237390458   -1.44585142204949
H           0.35182691762416   -1.62858968136061   -1.03295041113938
H          -1.59524412242255   -1.05173249819374   -0.17101214416292
O          -2.10547842141678    2.04867850014197    0.32806749248061
H          -1.58098798224907    1.92009623667455   -0.48477033295726
H          -3.00814115736688    2.20855818429196    0.04553675742007
H          -1.88486833651413    0.64010965669945    1.21575946289954
N           1.60746186943247    1.12547975033186   -1.29771721982209
H           2.32856034119078    1.82290980241771   -1.42879880832081
H           0.09788795551580    1.34242032987178   -1.77516025458632
H           1.97395923293388    0.23036559733204   -1.60023003338965
H           1.42912825790258    1.04761020904035   -0.29354720581099
