    26
        -50.44788583  Gyration_radius:  2.44265233656 Dipole_moment: 2.481
 S           0.12531632835862   -1.76597773878006   -0.44532368896082
O           1.41982253775848   -1.24013808461476   -0.11806628588286
O          -0.21654491792482   -3.02061106901494    0.13585799738998
O          -0.94288240783918   -0.69648809061238   -0.06994058647692
O          -0.04674544922911   -1.84504035659831   -1.97511996812157
H           0.13525528031177   -0.92449210381805   -2.34349578460706
H          -0.55196136195777   -0.13910246990505    0.70686169648993
O           0.43910234701509    0.56169038663802   -2.76148326910361
H           1.10956191438702    0.56681153014129   -3.44698577234396
O          -0.76438939071189    2.69284152325326    0.39365208783876
H          -0.71471086712504    3.62574080107514    0.18083472332799
O           0.09801887801367    0.45183609535354    1.89679159624084
H          -0.51757554872154    1.02599204832078    2.35865413460589
O          -2.00629920896751    1.36702652166736   -1.60877853896007
H          -1.31846640332410    1.26280268821010   -2.27941733392767
H          -2.01139305538104    0.52920319967339   -1.12811140149623
H          -1.31485754707737    2.28118999551364   -0.30834724330195
O           1.47955079729336    1.42023385827149   -0.58584029668075
H           0.78378219911569    1.83982024847881   -0.04127775513214
H           1.63375520195618    0.53885609602253   -0.20178254831772
H           0.87587646435363    0.96531788436164   -1.93528219145510
N           0.44567571997746   -2.00474257547076    2.79205145065597
H           0.23882705213534   -0.39396055159084    2.41169944028102
H           0.02053788758339   -2.48576664391201    3.57608817963475
H           0.15249213974986   -2.47837372253593    1.93851303185692
H           1.44825140032709   -2.13466948027269    2.85824831643910
