    26
        -50.44788580  Gyration_radius:  2.44265950022 Dipole_moment: 2.481
 S          -0.59937117633555   -1.60177564502710    0.63869694482092
O           0.76245778485594   -1.71519881698080    0.20046069396587
O          -0.90927272465158   -2.17607800152170    1.90480761255928
O          -0.98949378729993   -0.09396313077699    0.62773416905130
O          -1.55256694182275   -2.17089014277886   -0.43073666210230
H          -1.34919893827214   -1.69312667742404   -1.29480079554539
H          -0.12166282147903    0.44375395697984    0.78393675956489
O          -0.92187959895534   -0.85764286142480   -2.55779698365998
H          -0.72940017761254   -1.45543370960259   -3.28242051106884
O           0.29697926847481    2.61975617900434   -1.02096300120608
H           0.47490338882246    3.23420994653418   -1.73431042989504
O           1.18028694992404    1.03800419007017    1.15818614182549
H           1.07242257426809    1.96942900984057    1.36465616344398
O           1.27804162768866    0.13276614387240   -1.70218335965941
H          -0.03188699962407   -0.44238531039278   -2.28950410400228
H           1.10475526683487    1.01707663158858   -1.32173021792288
H           1.36773846310832   -0.47697499423432   -0.94839349382622
O          -2.10143720955024    1.43644832897028   -1.41670726327607
H          -1.91579659940969    0.75087736130134   -2.07189849796949
H          -2.08061272676054    0.97804390914917   -0.56677711570062
H          -0.62337021438919    2.30339177748169   -1.15592107352004
N           1.27707435371342   -0.69202297026631    3.14679688058706
H           1.21241072863183   -0.54929545174677    4.14791148900888
H           1.33765081597956    0.51189092967192    1.99409696394744
H           2.09138405576767   -1.26826826858458    2.96999018470478
H           0.46984464810336   -1.24259236367948    2.85686951581738
