    26
        -50.44974486  Gyration_radius:  2.55348326525 Dipole_moment: 5.643
 S          -0.74786253574146   -1.45021939204040   -2.11470934076645
O           0.30367376467255   -1.45941754188039   -1.11993954065688
O          -0.68465104327280   -2.42287740712812   -3.13729282085009
O          -2.11098146370354   -1.56304591538971   -1.38315747002912
O          -0.78614933720336   -0.03858240022705   -2.75720216113240
H          -0.50462548553470    0.67161914649956   -2.11131730920846
H          -2.08253188981646   -1.15060692628562   -0.47478510863341
O          -2.08492108726196   -0.66854336762920    1.05693132389957
H          -2.79625612213565   -1.12636188718733    1.50798394008790
O           0.07848829120589    1.85981174233307   -1.22251242897049
H           0.28961164259757    2.59570860150028   -1.79937956311067
O           1.36968213271253    0.62050960548073    2.32150723246796
H           1.46917330374912    0.81051095286172    3.25501166653850
O           0.19719615980334   -1.72658021052637    1.56044816052752
H          -1.22229070848362   -1.11691005952161    1.34524464770996
H           0.39469267891060   -1.80910425417208    0.61021242603604
H           0.73983412348734   -0.97821982347956    1.88049268462485
O          -0.82259467274448    1.78940640603849    1.38949752818993
H           0.57577950397068    1.13209813647885    2.01698408415582
H          -0.59073958306251    1.98257128953424    0.46702704117595
H          -1.44005116727067    1.04368060877151    1.34057618116738
N           2.21479459834324    0.59145129919302   -0.51283023333241
H           3.14255104705790    0.68894308237836   -0.90243018281305
H           0.96924086144736    1.42808345593803   -0.94460366519131
H           1.84584464960606   -0.32117498613987   -0.77175879386296
H           2.28309232867910    0.61724983460783    0.50000168199138
