    26
        -50.44023254  Gyration_radius:  2.54300350872 Dipole_moment: 6.123
 S          -1.77792871333480   -1.10922078326050    1.39109717736395
O          -0.86157748943249   -0.01363727962056    1.55235020749202
O          -2.90158026099712   -1.14792314307155    2.25406062012152
O          -2.22357728524776   -1.11636743666018   -0.11248780949592
O          -1.01148030535001   -2.44873737094202    1.47797273270368
H          -0.36587093977750   -2.44884877979930    0.71081422204179
H          -2.14212171156924   -0.18270673885094   -0.43562677253330
O           0.53684415294593   -2.41902317266849   -0.58582945034347
H           0.19445949010258   -3.10543966977727   -1.16192699950112
O          -1.99764682492200    1.35701269940204   -0.91677993955503
H          -2.81444334176868    1.76503892776064   -0.62351332841270
O           2.14307564718635    1.33858420288243   -0.61172646153736
H           3.06608750236933    1.47057211137748   -0.82971874722470
O           0.29648274367782   -0.17619319574576   -1.95171850560092
H           0.43547743126142   -1.56822400551512   -1.09360934052482
H          -0.54662562918758    0.26909298296090   -1.81880694074740
H           0.97885112986017    0.40680544916339   -1.56824106628047
O          -0.00542697124212    2.94999195493682   -0.18869928315806
H          -1.26864824632131    1.89000620124834   -0.50611746061029
H           0.79795211909382    2.39622020128745   -0.20443517572511
H           0.12274037204215    3.63221554994742   -0.85075029575947
N           1.91509563744789   -0.42177821444503    1.30028504877764
H           1.94837403989243   -1.36304799603202    0.92611056019265
H           2.11561777249406    0.67970701705829    0.15971606880212
H           0.93501525432501   -0.22481543312896    1.51699742483292
H           2.43085442644453   -0.40928406851496    2.17058353468472
