    26
        -50.46172234  Gyration_radius:  2.51963669823 Dipole_moment: 6.745
 S          -0.62408809648065   -0.72308526452175   -2.03564604253735
O           0.78399663854428   -0.63965777510834   -1.64774098248038
O          -0.99112749759232   -2.00301811707416   -2.55463749107074
O          -1.47177735944302   -0.30320883059880   -0.89890557838247
O          -0.85971866356171    0.36907209624458   -3.14752677306747
H          -0.72586797972969    1.21830786229619   -2.72515088964423
H           1.08157907795446   -2.27957924914152   -1.05055794900056
O           0.66767431116087   -3.07474868214420   -0.66211957932387
H          -0.02472623635359   -3.27161118303297   -1.30991944956319
O          -0.83299072649813    2.24491346158777   -0.57823040526781
H          -1.19993547017693    1.34500301800385   -0.68505774202320
O           1.23262325871322    0.33974166250713    2.06854580507550
H           2.07215743499497    0.13723941477029    2.48302288460863
O           1.67718808164626    1.38219756858911   -0.22108803076188
H           0.87461515671140    1.92849740610217   -0.37178885522215
H           1.46226460228971    0.76529880340435    1.16944381620004
H           1.53767236019188    0.61546469678078   -0.81592922566144
O          -0.76873723299716    2.31533023877581    2.20273201184371
H          -0.09382891778464    1.62439532408362    2.29379570446575
H          -0.40118746350122    3.11192446655657    2.58866610292551
H          -1.01352981087450    2.46220060638196    0.35241557664269
N          -0.48042494490316   -1.52545005799720    1.14394602022995
H           0.20824559870251   -0.87377371079068    1.59191335124899
H          -1.13024433504982   -1.90047301467824    1.82652794049182
H          -0.99713549402960   -0.97691979456999    0.38221956014089
H           0.01730368805707   -2.28806092641629    0.60107023013711
