    26
        -50.44023250  Gyration_radius:  2.54320122047 Dipole_moment: 6.123
 S          -2.10255944161090   -0.24586654017934    1.35789593456605
O          -1.03370623987274    0.70933327948654    1.25311101091856
O          -3.31142171926369    0.19491552970964    1.95212233549606
O          -2.35758572174688   -0.80840542888730   -0.08345496522374
O          -1.60018856373995   -1.51404219380259    2.08539266659912
H          -0.87478671898110   -1.89608575201025    1.50858927403503
H          -2.07177762916622   -0.10184555186135   -0.71738278434865
O           0.17248248710764   -2.49370855301545    0.48595851839546
H          -0.21110719357746   -3.31082665696545    0.16121874725472
O          -1.60001753727160    1.08413705076627   -1.71469890972835
H          -2.36299545957637    1.66367941648580   -1.75481231367416
O           2.40271691567024    0.73207009405481   -0.66886539721929
H           3.35455392489615    0.66392444130764   -0.74803735594784
O           0.50105104081912   -0.97901624561563   -1.64768990583589
H          -0.26098637533508   -0.42712786996191   -1.85142846397610
H           1.22155311396650   -0.37077567177969   -1.39569658372850
H           0.28609295156549   -1.91397756774726   -0.31576138704436
O           0.53331545153793    2.60388707347498   -1.29592654325164
H          -0.84602951370280    1.65342517610754   -1.41199676984741
H           1.22247482341372    2.00575875018463   -0.94995636805414
H           0.86163765074348    2.94037113618016   -2.13211837677958
N           1.63724312142509   -0.07620212230694    1.69095199290729
H           2.03517639845692    0.22606080731341    2.57066144712837
H           1.55101391786333   -1.08574187641671    1.71280791835933
H           0.68788578299969    0.30013614976293    1.63363024970691
H           2.16596450338087    0.44592314571245    0.27548601929093
