    26
        -50.46365321  Gyration_radius:  2.41765042653 Dipole_moment: 9.116
 S           0.79894668170085    0.29594910129069   -1.79236638806248
O          -0.46820965200273   -0.32917601653238   -1.41538659993742
O           0.76287824088834    1.05315365085975   -2.99549874491486
O           1.32007734001927    1.08071568884506   -0.63904985498638
O           1.82071603302659   -0.89129911592336   -1.95256167939319
H           1.74650859867364   -1.40904791517349   -1.13008395212023
H           0.33995863131724    2.48244720072255   -0.97739731714419
O          -1.57606549302346    0.05262559660118    2.00493389211890
H          -2.12750487156571    0.39365931399114    2.70967384000826
O          -0.41425382281118    3.02601991431186   -1.25952907667456
H          -0.42946441709292    2.91700907721402   -2.21490605137109
O           1.50681978639183   -2.33476393661629    0.36625200089868
H           1.85043711296154   -3.21590628999756    0.21148095678042
O          -2.16847601973487    1.26663858167023   -0.18531015864036
H          -1.73359059628716    2.11225714174504   -0.40829693112948
H          -1.70900693498057    0.62894198011305   -0.77004614337843
H          -1.84849519715354    0.55873551378477    1.17162219892241
O          -1.07514313501854   -2.20973500919247    0.31541184590192
H          -1.00986836576416   -1.60766860736492   -0.45707879990589
H           0.50510553048002   -2.41242825168860    0.35323172697434
H          -1.44605417179152   -1.65983461309272    1.01878054000042
N           1.07673972162984    0.03642937593265    1.64776285868274
H           0.05895040967360    0.04974793376943    1.90181201249093
H           1.39703068900225   -0.92842962325455    1.49304003091620
H           1.17980629162952    0.53339872437239    0.66062272177281
H           1.64215760982934    0.51056059360911    2.34288707219485
