    26
        -50.44023259  Gyration_radius:  2.54264802562 Dipole_moment: 6.119
 S          -1.75287046667429   -1.76812192168159   -0.35105132665208
O          -1.69125381979628   -0.47086575296294    0.26479622001577
O          -3.03515966268084   -2.26031441823790   -0.70057863376283
O          -0.80672932968144   -1.72750410434281   -1.60102568721093
O          -1.02465245547090   -2.80311600394640    0.53656263721650
H          -0.06706247035658   -2.50884091312791    0.57681288692192
H          -0.77107887720077   -0.78227567350201   -1.89784408929597
O           1.44016778454265   -2.04094139933901    0.49269450203696
H           1.90142492311500   -2.72247314087941   -0.00032934219039
O          -0.74760279829617    0.77290279771468   -2.34871642542180
H          -1.53904051375917    0.86766265636557   -2.88181242778257
O           1.26901585598470    2.00200063497151    1.06575194152360
H           1.90553896817632    2.44113111888414    1.63045551211044
O           1.75215304281694    0.16947093823314   -0.91120982227973
H           1.54476460497899   -1.20694424242697   -0.04156407790189
H           1.06215850380919    0.31105276607433   -1.56745335163583
H           1.65512928361960    0.88240868180736   -0.25174179943619
O          -0.68897611077622    2.80226511431167   -0.64173437036764
H          -0.82611220319270    1.45076741404709   -1.62862472048510
H          -0.08343681998355    2.53097015471754    0.07391116734581
H          -0.28816148402974    3.56669870287974   -1.06028149696429
N           0.13706967330703    0.03265506496407    2.34916697857357
H          -0.62439248914300   -0.11172405861575    1.68163221316820
H          -0.27134152003896    0.09437039138247    3.27273866213344
H           0.71772480064982   -0.79725565510171    2.31464062326904
H           0.83272355008048    1.27602083780791    1.62480421707096
