    26
        -50.46788074  Gyration_radius:  2.39870939755 Dipole_moment: 5.649
 S          -0.91681777981354   -1.03574641984443   -1.15996806195752
O          -1.66332266081617   -0.68273745449344    0.07061342652709
O          -1.10557271463620   -2.41244380276516   -1.52964026690904
O          -1.47863066879187   -0.12234383326961   -2.29279833801049
O           0.49072675488293   -0.69749423427091   -0.97948674876485
H           1.64714088591076   -2.81215535242821   -0.58791165167035
H          -1.21495607887454    0.80142193903936   -2.06605289920391
O           0.94979676166284   -3.22297634408501   -0.06836471198084
H           0.14632024864789   -3.11377281222161   -0.62889884677006
O          -0.63291298527673    2.33349472861167   -1.68826034725161
H          -0.56869001986904    2.83603119080907   -2.50207500051399
O           1.07233940947866    1.14543742656295    1.93184088185319
H           1.21565719805190    1.63131222372809    2.74497717360635
O           1.71280642992707    1.60148728009540   -0.81607412750955
H           1.77064066560915    1.65931367355012    0.14672549548666
H           1.40971929579655    0.67971378062789   -0.97304690408111
H           0.30647596168751    2.14945488859813   -1.39282054008636
O          -1.27339608071409    1.77068211031289    0.96805258224715
H          -1.56682697286131    0.88147731621773    0.67018330472065
H           0.18020599651841    1.43996455875752    1.58537116354270
H          -1.20601825911139    2.28409009007403    0.15290769490250
N           0.16184857583463   -1.43045368220309    1.72047980873820
H           0.62995308011948   -2.15627557175080    1.10075902311688
H          -0.69858276836390   -1.13912209890463    1.14464092686917
H          -0.10142202148554   -1.82043819866734    2.61959079027505
H           0.73351774648631   -0.56792138210330    1.82925618282783
