    26
        -50.46788075  Gyration_radius:  2.398748178 Dipole_moment: 5.648
 S          -0.56409872744379   -1.27595995680052   -1.14608266863445
O          -1.05242116059623   -1.43892838999533    0.24355432232662
O          -0.15390690624252   -2.52702216234278   -1.72413012466509
O          -1.75904393330973   -0.70204684069926   -1.96817091684783
O           0.50147654735805   -0.27981991972659   -1.16522560906010
H           2.58722067527745   -1.52846782593918   -1.39035962148492
H          -1.92426837415006    0.20866367235707   -1.62537651819201
O           2.32942859405018   -2.27242980170232   -0.83810064398293
H           1.46112906404242   -2.55083864014439   -1.21264697650849
O          -2.07607624512401    1.79307096997362   -1.08133193390609
H          -2.46747604068599    2.31278859966730   -1.78537194470038
O           0.83550577657745    1.39597546886437    1.88364624826820
H           0.92642553425179    1.83074168495706    2.73251210268768
O           0.46589941533635    2.30326410693455   -0.80134978757955
H           0.72807380772361    2.31574921120431    0.12859775396099
H           0.61462565422188    1.36940108681215   -1.06940807906516
H          -1.12414981541050    2.09448553951297   -1.00105057977043
O          -1.67807582555642    0.80100085791295    1.49574943237535
H          -0.14263856799841    1.21688624314069    1.76616557636345
H          -2.07244770599604    1.33168119812664    0.79189088120988
H          -1.57226065852402   -0.09039549445940    1.09611101936602
N           1.25455652508108   -1.26214387591780    1.36583160333282
H           1.44590426093365   -1.79291975668019    2.20931914477083
H           1.84143538422912   -1.60241218527868    0.54739101760390
H           0.24710920591538   -1.41172176146171    1.02022552677688
H           1.34807350599749   -0.23860204831887    1.52761077537225
