    26
        -50.45730958  Gyration_radius:  2.44905627521 Dipole_moment: 7.981
 S          -2.22500689914164   -0.70846315855215    0.63540425293983
O          -1.33584528335886    0.22237230854255    1.39743427870027
O          -3.57752525834519   -0.64663800846398    1.06222786801371
O          -1.98847808497105   -0.54090836431179   -0.79198481119805
O          -1.63025691824523   -2.14128469544910    0.97763265999133
H          -0.92339686398924   -2.23350680365944    0.31640175259330
H          -1.37165675630898    0.65869241632865   -1.56979031404853
O           0.61224922353722   -2.26193123740678   -0.54451927117160
H           0.58819371500576   -2.99249151702744   -1.16337367141558
O          -0.90059422072295    1.38871234015126   -2.06425388100573
H          -1.44433246474177    1.57784779110246   -2.82957594446035
O           2.15282624859476    1.40430321919072    0.48922806529966
H           2.78993460984219    2.07591009875942    0.73307842360524
O           1.36860809469565   -0.08480355108757   -1.77001712403679
H           0.58346153685161    0.43867668633915   -2.02128340858764
H           1.82553187241441    0.44580078680850   -1.10102952316533
H           0.84280157716761   -1.45027830241788   -1.08419866598718
O          -0.21075070179717    2.41397611503053    0.36097592614597
H          -0.47156316535480    2.30814708479408   -0.57031719559332
H          -0.73887681167574    1.73969032823344    0.83667148744139
H           1.25483722044246    1.87110095162479    0.43908107708393
N           0.99077479953019   -0.71412065883908    1.67274797572723
H           1.20910540536091   -0.99557499101382    2.62144324496815
H           1.04235177810244   -1.50964339316491    1.02288765246322
H          -0.05441705934206   -0.31922620824333    1.60845276106097
H           1.61202441645117    0.05364072273198    1.33667638463750
