    26
        -50.44023212  Gyration_radius:  2.54403391641 Dipole_moment: 6.138
 S          -0.21039268484873   -1.82924195360012   -1.72005598005504
O          -0.09910436894429   -1.75882558028046   -0.28877393348075
O          -0.72298300514603   -3.02914517718135   -2.27328927752125
O          -1.06074266195065   -0.59271056726373   -2.17467634662729
O           1.15532522708409   -1.50313548686456   -2.36709225369280
H           1.36776593496030   -0.55830664815724   -2.10822423138557
H          -1.63928017981225   -0.34891031017094   -1.40751350935202
O          -2.57441295913986    0.00999278363668   -0.13431705689388
H          -3.31663376925472   -0.59079311322418   -0.22152474529826
O           1.57299570188648    0.96820169047281   -1.75235422484785
H           1.50979451925526    1.44471254125377   -2.58253822540033
O           0.62388090111193    1.21040906733474    2.21367121716548
H           1.16244835964752    1.72647306442551    2.81407477823140
O          -0.35520248369194    1.93928659116395   -0.23832317580523
H          -0.04487870630512    1.77292545473512    0.67190414806143
H           0.83752517863934    1.32380378278383   -1.18269830426156
H          -1.19139547025369    1.47094749273160   -0.32949117188070
O          -1.74803772250438   -0.10459265963637    2.38348864796752
H          -2.27043091070110    0.48965374016519    2.92589964510800
H          -2.19432765047646   -0.16138094700461    0.76584472376892
H          -0.83971823798623    0.25269706165596    2.37964555394493
N           2.11282547013790   -0.48241479996689    0.90191279334222
H           1.34546989981669   -1.05526458976609    0.54222943813641
H           2.54374524504059   -0.03423043700217    0.10159057139020
H           1.24370052403686    0.54539993038418    1.76166456440661
H           2.79206385942900   -1.10555094060149    1.31894637499809
