    26
        -50.46788052  Gyration_radius:  2.39848817861 Dipole_moment: 5.646
 S          -1.54445687766774    0.58120089253569   -0.73207755814245
O          -1.71980497915640   -0.27362185681567    0.46574847499933
O          -2.48762469220019    0.25848923720641   -1.76838895127334
O          -1.78426391430825    2.04966791646913   -0.26388911994225
O          -0.16263638411295    0.48581217515118   -1.18997738320311
H          -0.20654525510805   -0.95451678456513   -3.16632371050489
H          -1.03823599262337    2.27724407212265    0.34109669041472
O           1.89274785996260   -1.21363672817810    1.06506184783785
H           2.43625317312436   -1.69970096354648    1.68649347437957
O          -0.88450818686020   -1.55540116059135   -2.84367725925373
H          -1.61541336176646   -0.95514024338673   -2.56577181004895
O           0.31629190037267    2.64199779871337    1.26839455909507
H           0.45407458184019    3.59004901256723    1.23404064901954
O           0.05851199452524    0.09783413520252    2.38304483090763
H           1.22831198784010   -0.70515659497416    1.61528184161464
H           0.20397698905364    1.05206390165314    2.35285183705403
H          -0.70653962919636   -0.04964822666282    1.78432935298431
O           2.07374639980400    1.35735779553001   -0.16701689474742
H           1.06460937177237    2.22686981887478    0.74739530004588
H           2.35573518469767    0.53951485482420    0.26360970797088
H           1.31358164151464    1.07415132164730   -0.72187259496875
N          -0.23143054148218   -2.20279577473416   -0.35602220332319
H           0.70955400094710   -1.92339789687212   -0.01102479279973
H          -0.45611442734235   -3.15792516785599   -0.09715470861323
H          -0.92079602041298   -1.49926677046335    0.07607256763115
H          -0.34902482328541   -2.04204475381361   -1.40022414708783
