    26
        -50.45730964  Gyration_radius:  2.44890463245 Dipole_moment: 7.980
 S          -1.39881026271399   -0.33352082108568    1.94571817928467
O          -0.07996069064950    0.37120412761058    1.90936555107093
O          -2.13623651918236   -0.05625965393676    3.12674546974924
O          -2.09437121113250   -0.12145349741039    0.68363679214314
O          -0.99104787337240   -1.86908057089240    1.92834220912316
H          -0.89571791822067   -2.04538973591766    0.97693271466987
H          -1.90818427781745    0.99457044703120   -0.38602845530886
O          -0.29099684153140   -2.29563816260948   -0.65796703645308
H          -0.83412077238411   -2.96793211216257   -1.07063650992370
O          -1.73592680640243    1.65762914452140   -1.11410439532268
H          -2.59617326058726    1.98910427741125   -1.37345653294945
O           2.18276688013176    0.95764180821955   -1.07827782425389
H           2.93850227887079    1.48567640891417   -1.33614864608829
O          -0.10644179475100   -0.21704534733102   -2.22630568756716
H           0.75669708821537    0.17823187427312   -2.03509609839910
H          -0.31336078978684   -1.50620391943743   -1.27396002048604
H          -0.76227829502708    0.45470930617744   -1.95746179408493
O           0.50392039972101    2.38428009189630    0.25151822908786
H           0.28633997863344    1.78758174669986    0.99756410253338
H           1.55885080344660    1.58133594188024   -0.57977355424504
H          -0.30132857397725    2.38737216789010   -0.29444720177811
N           1.67645405034713   -0.98697502464096    0.71016564477140
H           1.15997976500526   -1.73509526689542    0.22899598021048
H           2.39116900134564   -1.36414243879102    1.32159687000324
H           2.06918841728402   -0.32410345208908    0.00658982538987
H           0.92108723453393   -0.40649733932511    1.29649219882366
