    26
        -50.45283818  Gyration_radius:  2.45262611108 Dipole_moment: 5.083
 S           1.64844917896169   -1.24866990865663   -0.18147508554242
O           1.50224295945798   -0.83990512028472    1.19748580204505
O           1.55927638748472   -2.65039785178591   -0.41157002916483
O           0.55229613743823   -0.52532164960060   -1.01828330257242
O           2.93482233092324   -0.66347637519235   -0.75862689432384
H           2.81682044597774    0.35316535491505   -0.79563673742455
H          -0.24295887762107   -1.16079974800006   -0.98474506163380
O          -1.77713731920209    1.30966270285538    1.09626677441020
H          -2.52360026167304    1.81307985492362    1.42321059067971
O           2.56277309952408    1.84895591514224   -0.72062018366909
H           3.35472248590338    2.28558929492009   -0.39785377351836
O          -1.24700346862783   -2.26404571566150   -0.64724131907635
H          -0.62184552145804   -2.99830743680986   -0.64525556361407
O          -1.12196564968867   -1.28916105559974    1.76615724258344
H          -1.36811702806138   -2.01024228921991    0.31138205767512
H          -0.15238305816282   -1.23244206110992    1.79556329306986
H          -1.42791740584723   -0.36808152421350    1.68004356693281
O           0.95309527268319    1.77434088026264    1.32009899509922
H           1.88383419063812    1.93399306711451    0.00877410204396
H          -0.01439568402749    1.76912757017445    1.23221387992124
H           1.19320878306782    0.84269725309710    1.47876616268147
N          -2.15611338246758    0.66297635700056   -1.47265461956741
H          -2.76466822343497    1.12760395990121   -2.13496464278813
H          -1.95095379984011    1.11430712367303    0.13516486855337
H          -2.38980654064116   -0.32369770719172   -1.46683981497562
H          -1.20267504117823    0.73904907930694   -1.80936031764550
