    26
        -50.46172221  Gyration_radius:  2.51991124368 Dipole_moment: 6.739
 S          -1.47759811081002   -1.42506077748401   -0.91484516122644
O          -0.26927058714752   -0.82372014241468   -1.51924717921720
O          -1.51440071488285   -2.84703614978286   -1.05312433258473
O          -1.60087677332877   -0.97697413362116    0.47233570604659
O          -2.68709786250195   -0.79994747897141   -1.70903328439510
H          -2.55526193239785    0.14879357274039   -1.69922426446541
H          -0.74737688523860   -2.26457226346516    1.33567022229067
O           1.41404653690091    1.18495518942328    1.58319058645566
H           1.57558894036862    1.27843157030157    2.52274744249919
O          -0.06236781295891   -2.95735952496554    1.26226860159263
H          -0.38050626342059   -3.46846340622796    0.50377124211835
O          -0.82035266962455    1.76469365997923   -1.51143881928684
H          -0.57318975151411    0.82796272203188   -1.64315013714359
O          -1.08094075009229    1.51330020358283    1.14249778681353
H          -1.39066183894559    0.58672527364223    1.06060167535661
H           0.41261676409369    1.33798536958664    1.45680565648933
H          -1.09851170681305    1.83517895729924    0.21445848428121
O           1.67944429571287    2.72631529779327   -0.75853504826811
H           0.03257699907319    2.23192272770470   -1.49908391596099
H           1.71069003537620    3.65431375120637   -0.52101935717440
H           1.72158916376822    2.22468626700201    0.07081103769673
N           1.57861250261495   -1.15205149530128    0.24937778188173
H           0.91451624184918   -0.97008703857710   -0.57150644599322
H           1.10764068076875   -1.94397265923411    0.77432656227840
H           2.50371107355202   -1.40546455968331   -0.08043624176936
H           1.60738044558922   -0.28055493257734    0.83178140167554
