    26
        -50.44974534  Gyration_radius:  2.55349814326 Dipole_moment: 5.643
 S           0.23313678992279   -1.11330971422755   -2.41690755493708
O          -0.54122020586488   -0.06787064459520   -1.78224068017259
O           0.06345771135042   -1.29580802331119   -3.80745787546488
O           1.73194405196050   -0.84697262776906   -2.11731034911180
O          -0.06057680160626   -2.44923080676564   -1.68546981990602
H          -0.26826204164937   -2.30686826073371   -0.71977747368968
H           1.85989406813932   -0.38588857523249   -1.23868402200294
O          -1.11892762697558    1.52754550159344    2.01594159709221
H          -1.53687564312828    1.68937992371145    2.86243807359671
O          -0.78096530584497   -2.16069131805334    0.79507977596018
H          -1.28254479742836   -2.94821207465947    1.01273316322356
O           2.17209766207359    0.48589777513560    0.05883987856397
H           3.05535858857553    0.84880117825842   -0.02516136115216
O           0.73792471790179   -0.35130412932122    2.26784386296193
H          -0.39642393821891    0.86845567301231    2.18418034104556
H           0.28846874062797   -1.12684048811211    1.89868783898740
H           1.39290043101918   -0.09969288688008    1.59723152225925
O          -2.31261451439340   -0.17729779186322    0.24624142960783
H          -1.85144678384781   -0.02517320898055   -0.59820783685166
H          -1.45595364032497   -1.42010259897084    0.63986503528902
H          -2.00758073791221    0.53198414437622    0.84685431781405
N           0.37853680481959    2.28313726937679   -0.42056351761460
H           1.51141912334432    1.25715115561178   -0.10113458612336
H          -0.21015707961351    2.37616426377500    0.40159529348028
H           0.52161166380030    3.19999909566115   -0.82171905507993
H          -0.12320124672114    1.70674717896842   -1.09289798772628
