    26
        -50.45730942  Gyration_radius:  2.44941320959 Dipole_moment: 7.992
 S          -2.31638673271852   -0.49010283553017    0.50830559581325
O          -1.39010828240044    0.36396393769842    1.31435086220721
O          -3.67964581427373   -0.30010147081808    0.85591790107836
O          -1.98468776884963   -0.36233646002165   -0.90422365635002
O          -1.87635839373816   -1.96757449602689    0.89385743841875
H          -1.14573036163851   -2.13281679046451    0.27419255137301
H          -1.21085653033336    0.76268651456954   -1.65201042091304
O           0.43047796587995   -2.31389201227786   -0.49338243711441
H           0.37826428187013   -3.04792738691641   -1.10625768220821
O          -0.64418605328463    1.43837759002356   -2.12297983782894
H          -1.11956147479031    1.66478286955779   -2.92293579782341
O           2.24187394549780    1.20400545607467    0.60785746535122
H           2.92374619437013    1.81659397340253    0.88393936486445
O           1.45820632299795   -0.23186616008175   -1.68537870426212
H           0.76782769864956   -1.53416601934600   -1.02396125758731
H           0.74048298028411    0.35868696423993   -1.98538847506381
H           1.92203284592847    0.26180510713804   -0.99322454226645
O          -0.00512032517135    2.42740789147797    0.33125175618789
H           1.39601196636869    1.75165632306987    0.50084136294308
H          -0.21956146667274    2.33451998294366   -0.61310244708719
H          -0.62133479080894    1.81156569314289    0.77943122305556
N           0.81861890472685   -0.78259568831994    1.73281609372973
H           0.83320273902800   -1.58620635809540    1.09080931107721
H           1.52797806659551   -0.07994861645289    1.43030659411071
H          -0.17881402348136   -0.29292127628208    1.60489831573768
H           0.95362811596225   -1.07359676270652    2.69406943255738
