    26
        -50.45004268  Gyration_radius:  2.53806821425 Dipole_moment: 5.966
 S          -0.49898325058287    0.57862132859346    2.50648333468253
O           0.41852000045945   -0.21907267548691    1.72237913088773
O          -0.32003301335604    0.59373926005809    3.90789738048336
O          -0.44109504348220    2.03494585498521    1.97127841768479
O          -1.94407870003242    0.12392846440362    2.17628564831433
H          -2.01775408965700   -0.27895844192299    1.26550402226813
H          -0.19422711347453    2.05928923645666    1.00275448195225
O          -2.29919616399290   -0.92495508099320   -0.16708145099885
H          -3.23510117874497   -0.85592575045956   -0.36193185864598
O           0.32564389448830    2.21558208825349   -0.49675832771804
H           0.62672546208956    3.11544026646866   -0.63154273445127
O           1.06860209347962   -1.50691724426891   -2.04489560021642
H           1.07902932500375   -2.21085662387444   -2.69433204000966
O           0.03221411521116   -2.41866708493315    0.20630995561540
H          -0.91399342853666   -2.27316429038450    0.07726711429715
H           0.74383507254895   -1.91514932456713   -1.19841536243153
H           0.29287307184430   -1.73569908021088    0.85038250127321
O          -0.96512638203003    0.30853821109090   -2.00500992628438
H          -0.59485456163519    1.09232552285756   -1.56844627196539
H          -0.20634572878251   -0.29314455218487   -2.14787019706176
H          -1.81616787871605   -0.42983167857063   -0.90047404288034
N           2.29047970617469    0.55768812386873   -0.31146369588279
H           1.93653807987341    0.12793049101790    0.54086289235033
H           3.27085448496526    0.76971222595070   -0.18456981787206
H           2.20005180568488   -0.12985546452460   -1.05353471348629
H           1.16158942120705    1.61445622838161   -0.46107884992067
