    26
        -50.46365340  Gyration_radius:  2.41774631567 Dipole_moment: 9.109
 S          -1.96879220578919   -0.20604546025997    0.14041926597500
O          -0.99922756920814    0.31045814444619    1.10589080279967
O          -3.23091779800367    0.44910643386414    0.14484324799675
O          -1.34530516740421   -0.23589200640350   -1.21143260950892
O          -2.16578708388187   -1.72263147489198    0.51550898216913
H          -1.26636422924367   -2.09375003230396    0.57220880580213
H          -1.66269582285323    1.44647147781424   -1.54145426607312
O           0.40416924169578   -2.68012372202839    0.71485222628096
H           0.37811614218188   -3.48594912185239    1.23292722670217
O          -1.78373230876894    2.40037853118306   -1.40245756836879
H          -2.60032159606070    2.45579124300800   -0.89745292065206
O           2.34782494149958    0.99346276289247   -0.07393683176270
H           3.08216714276750    1.54633574131652   -0.34262510279860
O           1.27153721848678   -0.63152448328849    2.03279428388649
H           0.39739841197181   -0.20508709673865    1.90132776501631
H           0.78014040625708   -1.96693324762404    1.31453985656479
H           1.88631835060880   -0.08245722037394    1.52777527411998
O           0.28769591514086    2.47898152791538    0.33805791253389
H           1.56927090830340    1.62281658850673    0.07731094312049
H          -0.29737343066733    2.71712106970907   -0.40683617157419
H          -0.22952009051167    1.78988487243429    0.80424358783015
N           1.06221673588491   -0.99166369251271   -1.32645006400536
H           1.06629865721934   -1.83193492880207   -0.73361748733837
H           0.01161239776658   -0.63493059152565   -1.30963514012288
H           1.65677989105934   -0.23879587763983   -0.90111606049393
H           1.34849094155281   -1.20308942684649   -2.27568595808893
