    26
        -50.45730960  Gyration_radius:  2.44900336293 Dipole_moment: 7.981
 S          -1.73240542792847    0.49027118064169    1.61675960374754
O          -0.93433027054187   -0.77129728541301    1.52349057933298
O          -2.40071727451149    0.62536691438244    2.86193527252141
O          -0.90683988722226    1.61561633238494    1.19986073623273
O          -2.80694008341587    0.32733616985163    0.45770025183318
H          -2.32453576522329    0.66104545020600   -0.31770780425963
H           0.64296743754977    1.75058742467503    1.14047115884586
O          -1.37446567811393    0.83023039126060   -1.79131514119337
H          -1.72293201153442    1.57606002801450   -2.28071250408790
O           1.63348309532603    1.81396101068554    1.02059574441035
H           1.88938464306000    2.65264669366251    1.40563853820697
O           1.80281109993253   -1.63711603512940   -0.95692419403977
H           2.50358379982475   -2.27628949064603   -1.08646851564785
O           1.73655611761287   -0.86383107766837    1.49657111684083
H           1.93342132682301    0.08821111791538    1.45874938948897
H           0.77692468680568   -0.90356141214482    1.68957177716296
H           1.84611078460497   -1.36359187653924    0.01779180194555
O           1.21607775097077    1.05192963465152   -1.55878933229807
H           1.43390900958901    1.44390890842204   -0.69130684014956
H           1.55313404816708    0.14483929221381   -1.52073613588329
H          -0.39478471011747    1.00619304151382   -1.67991583495201
N          -0.88425429169867   -1.67798186774059   -0.83089629717554
H           0.13093419155657   -1.82332112573824   -1.02269674942424
H          -1.42253680675766   -2.52766412978615   -0.95428508826141
H          -0.95274731803302   -1.31684521475935    0.22566897800335
H          -1.24180846672086   -0.91670406490500   -1.42305052120502
