    26
        -50.45730956  Gyration_radius:  2.44923013222 Dipole_moment: 7.985
 S          -1.99698856460386   -1.06561159271602   -0.85787140783980
O          -1.89365065564167   -0.24065066752198    0.38553352488516
O          -3.33847794877771   -1.24691620206936   -1.28552972925426
O          -1.06314782064170   -0.55706522589069   -1.85329441499175
O          -1.39188805162894   -2.46681873403486   -0.41599884422070
H          -0.43918258800458   -2.33275907386319   -0.55593577166830
H          -0.39707892155658    0.84468665523028   -1.97623381754096
O           1.28148304130029   -2.00251944354051   -0.36796254028689
H           1.75949775558606   -2.57409363926627   -0.96961559696747
O           0.09708630215968    1.71297284754571   -2.01312652660440
H           0.03450021036513    2.00993265980950   -2.92144326896512
O           1.17386526181496    1.47893622653214    1.81118723441435
H           1.41167011482285    2.14197944246550    2.45944908253643
O           2.09309846960655    0.46234858610701   -0.65003997499094
H           1.58780866968974   -1.07059536064880   -0.57002352277210
H           1.48085727756078    0.94211586690866   -1.24051930577453
H           1.98362716758470    0.87410368699920    0.21965297291196
O          -0.88832384833039    2.23457379707857    0.47003332872578
H           0.37323481429201    1.84695948744851    1.31084207376378
H          -0.56888291160523    2.31345339516700   -0.44552145411995
H          -1.43064630417449    1.41869128127019    0.46606033784487
N           0.04379336501365   -0.96255468010262    1.83209875658449
H           0.56468118518468   -0.07734069895786    2.01505807094473
H           0.61142375314581   -1.58044686712149    1.23709603912891
H          -0.23525539769506   -1.42664957835290    2.68863472292458
H          -0.85310434546770   -0.67673215847607    1.22747004133290
