    26
        -50.44928177  Gyration_radius:  2.47062699017 Dipole_moment: 7.771
 S          -1.26051351375284    1.76221335106494    0.57758199647643
O          -0.29014494634137    1.78055735356698   -0.49682369163752
O          -2.36660942715046    2.63358737984910    0.45668517548745
O          -1.72212012940186    0.28159057084743    0.76400906407592
O          -0.53144556267039    2.00775373431751    1.90936577184485
H           0.30309647378839    1.44648347036539    1.96831679318383
H          -2.23536969043053   -0.00681460075015   -0.06317909014049
O           1.32370310055205   -1.57967097521118   -1.26354513946177
H           1.83731096701784   -2.35516713986226   -1.49092106466918
O          -2.78781542796327   -0.54029585711331   -1.38881965256560
H          -2.92591003438285   -1.48941294241535   -1.41840530711704
O           1.68221356528037    0.69114359458221    2.06849151281776
H           2.26803366287285    1.26308126714274    2.56837413928293
O           2.24255060457797    0.88301834213529   -0.44382465493508
H           2.08456767641151    0.01185374899793   -0.84986669326800
H           1.42636635049455    1.38708774510788   -0.61420097026146
H           1.99539163255969    0.73568444808566    1.11121771452905
O          -0.53710755286428    0.02806429829982   -2.55748860636631
H          -0.41174787109151    0.82178761805111   -2.00956457547118
H           0.13689951959196   -0.60148424062819   -2.25148575827951
H          -2.00941302587253   -0.34337423207305   -1.98428672309667
N           0.31740335604729   -1.82057383368913    1.18673503597268
H           0.93218256445724   -1.73776851994753   -0.35599601359353
H          -0.52499899367855   -1.25279038722184    1.14759713305574
H           0.08581860651985   -2.69061725206132    1.64961435132720
H           0.96765813548709   -1.31593694147028    1.78041925281205
