    26
        -50.44810399  Gyration_radius:  2.52543386293 Dipole_moment: 6.953
 S          -1.51018673461365   -1.58769414771313   -1.07853639446649
O          -0.75340344540725   -0.80214909864328   -2.02671938848462
O          -1.34128657961160   -2.99353531383172   -1.12788024714171
O          -1.11118890937008   -1.07513385893874    0.35710393277814
O          -2.97789466545213   -1.17819375256713   -1.13766002034712
H          -2.96318019700279   -0.17785971074875   -1.37028778800174
H          -0.18962611980209   -1.41075144870809    0.58950546184239
O           1.26059166568405   -1.77122627877349    1.03328558525859
H           1.24429582491782   -2.54946250024882    1.59297313028785
O          -2.52158729388022    1.22621066682261   -1.74825658279761
H          -1.76658373623054    0.90729116441965   -2.26217321720288
O           1.47939866907449    1.91568062583557   -0.08668702442443
H           1.80324880288713    2.63116697819443   -0.63519135956814
O           1.80132976422359   -0.36401592679215   -1.36254028812519
H           1.64158257460359    1.07907838348573   -0.59943322832591
H           1.90662199039498   -1.03958552864526   -0.68236436360727
H           0.92712466209998   -0.53230198876225   -1.76323210787271
O          -1.18880510158108    1.70926498380782    0.49854470076431
H          -2.13815182623362    1.59783881625232   -0.91560214647855
H          -1.22864012883375    0.76529756223017    0.70320198713183
H          -0.25189864460788    1.89395833682065    0.29607662691183
N           1.59347977722081    0.42391981547990    2.43068340621655
H           1.66080529480531    1.10348269773780    1.67489586531680
H           1.44963327424238   -0.96566476470107    1.62275524179951
H           2.40438499391378    0.53878458646821    3.02514309371896
H           0.76993610855171    0.65559972143691    2.97239511481301
