    26
        -50.45730949  Gyration_radius:  2.44925724221 Dipole_moment: 7.991
 S          -2.24944531999665   -0.00271146821261   -0.89533881433143
O          -1.41473397500976    1.20014227089549   -0.58958034214758
O          -3.62379090806454    0.31154949041191   -1.06237693925622
O          -1.65553146671656   -0.51555614516680   -2.27701561515273
O          -1.93853495849730   -1.06074261387441    0.05633279189976
H          -1.29084199810875   -0.97655839650897    1.46947024259564
H          -0.91300231211850   -1.07246410835915   -1.98752154208648
O           0.66927331986032   -1.71162652091508   -1.55119034045966
H           0.68955476763083   -2.63777489634788   -1.79425929400861
O           2.10502090161322    1.31923628077819    0.82048374446673
H           2.71920386346202    1.93784990726575    1.21607133873979
O          -0.80053792299305   -0.93755112957704    2.33984246375263
H          -1.30141114399669   -1.48445120766681    2.94579806132288
O           1.46725721192131   -1.42284117948157    0.91689225264600
H           1.87942589431041   -0.54737073430629    0.95689294890261
H           0.69052911711337   -1.36867145144206    1.50639663225404
H           0.92072031911561   -1.67451008394545   -0.58230598882632
O          -0.25923369804667    1.66920125243355    1.77369814582356
H           1.20560370316404    1.49887103859041    1.25155515408313
H          -0.80510820165625    1.64314431243683    0.96045932457208
H          -0.46641828157417    0.83384066892746    2.22725475889594
N           0.90406491839241    1.00821743054309   -1.56658529684480
H           1.00078250937379    0.02269736470691   -1.84493105567717
H           1.07303518731887    1.63206130428257   -2.34710327394010
H          -0.13994480056911    1.12846923784422   -1.18375633397654
H           1.53406324407508    1.20754941673765   -0.75918302323582
