    26
        -50.44810401  Gyration_radius:  2.52511053386 Dipole_moment: 6.946
 S          -0.39074188072680   -0.47577384177068    2.36227275297000
O          -1.59925120952388   -0.11884714384803    1.65464477804844
O          -0.35497189085035   -1.75528893792910    2.96954333318285
O           0.79127597877885   -0.36877984674436    1.32573389145159
O          -0.02604530365350    0.63848906864818    3.33746981037184
H          -0.34686386905552    1.50193364214817    2.88328319640261
H           0.75366073016315   -1.15185757320841    0.69235060380331
O           0.75183261647753   -2.24883602958099   -0.41547503560468
H           1.36061070242231   -2.95049667116006   -0.17836277457821
O          -0.73266649144153    0.86968156481463   -2.13795433868344
H          -1.42221284494162    1.35822375694175   -2.58909514733560
O          -0.97834280852841    2.50000397178833    1.92644873507780
H          -1.66970458194223    1.88075107358878    1.65374373292760
O          -1.81730141296312   -1.13000387713823   -0.81348851093319
H          -1.18641466637716    0.11666920114121   -1.67307649373845
H          -1.14215839808246   -1.81690432479671   -0.76361948910685
H          -1.90505617684827   -0.78517178208855    0.09558105591789
O           0.67845287757385    2.02826336876282   -0.09585343795734
H           0.17487207174232    1.71649325299787   -0.87185051425992
H          -0.34809879797779    2.54631648899584    1.16543288984608
H           0.97587858723902    1.22855366750528    0.35859532125813
N           1.75482918838764   -0.67127250099479   -2.25611514174197
H           2.50088121120540   -0.09217453369585   -1.89098186413657
H           1.17139659642303   -1.71147877031330   -1.16852232703805
H           0.95346753640366   -0.06480214783754   -2.42201043961571
H           2.05267224616983   -1.04369106624155   -3.14869460642661
