    26
        -50.44928169  Gyration_radius:  2.4705858051 Dipole_moment: 7.768
 S           0.86440099476038   -1.01481418762833    1.80308938320483
O           0.79406799358420    0.42201197157831    1.63933939136408
O           0.83116545281390   -1.51109257097766    3.12591756181355
O          -0.27303503982522   -1.63947092275575    0.93352989205248
O           2.11036849292647   -1.53805395058389    1.06871127713742
H           2.18463666626757   -1.12410756277451    0.15331662510838
H          -1.17012782831181   -1.36965946697705    1.32556010006247
O           2.42471414808922   -0.42178459031010   -1.23674975024145
H           3.37548325604273   -0.35831726600450   -1.34715219333028
O          -1.07623461674462    1.59972361269113   -1.45750603095370
H          -1.46598534224077    1.99819396221536   -2.23609901114814
O          -2.51897774867435   -0.77630303184323    1.74343200206737
H          -3.24629891252453   -0.96169909720254    1.14559588679289
O          -1.61787937241903    1.61448259713516    1.26786750048011
H          -2.30890797028452    0.19650519959183    1.64926244032280
H          -0.72425619180495    1.37716931178498    1.56966835461224
H          -1.53979914833965    1.72718456709523    0.30584461196154
O           1.49488659430651    1.87428778962535   -0.51093521625533
H           1.33241215637443    1.55104528305624    0.39367611422635
H           2.10170080059300    0.51253823299293   -1.03914301499808
H           0.60808905824531    1.97188049121235   -0.90182653640663
N          -0.43789378534070   -0.93758470943942   -1.93636379382756
H          -0.89578999077289    0.63921085219702   -1.67378064857078
H          -0.89637789085301   -1.54929666929926   -2.60004743921748
H           0.55006130653276   -0.91298227207539   -2.16726479688731
H          -0.50042308239414   -1.36906756334002   -1.01794272940262
