    26
        -50.45004755  Gyration_radius:  2.53821949979 Dipole_moment: 6.007
 S          -1.55102385637407   -1.59881089422558   -1.38070156877895
O          -1.46488999115891   -1.02196093394793   -0.05684186073462
O          -2.64376888644382   -2.45253031198398   -1.65178102250699
O          -1.52226808960325   -0.44399145252984   -2.41607764075908
O          -0.23032917283358   -2.36696327173154   -1.65448963737900
H           0.54167936636431   -1.91598524021104   -1.20878093019104
H          -1.13610715051579    0.39909214969730   -2.04348670258590
O           1.80515372104031   -1.34802997348806   -0.41279238770763
H           2.51147927009627   -1.99548621214221   -0.43753546144536
O          -0.52301253426909    1.80896716409899   -1.62084856391103
H          -0.35366414095931    2.31811795013553   -2.41510882971074
O           0.61763480844931    1.67781294118563    2.09956647152793
H           0.66682066743197    2.51501191052764    2.56228272466466
O           1.70941941404257    1.40564210137282   -0.38344667666511
H           1.88017035326483    0.45526086946080   -0.48327641260306
H           0.36898847185782    1.67416493295324   -1.17075465499457
H           1.44921972625071    1.52763857972406    0.55232075233905
O          -1.71874837461831    1.49746525712360    0.88239079500623
H          -1.77449137534325    0.54897437931526    0.66822696567834
H          -0.30098874031839    1.62247568619037    1.72277400435040
H          -1.54507081581062    1.92072290146986    0.03150578802011
N           0.63871861032604   -1.27078686815233    1.88380875514398
H           0.69284073275150   -1.95422101502080    2.62693413813136
H          -0.29689464069345   -1.29828414531485    1.48301725324517
H           0.76628246619115   -0.34564528850289    2.28306559447569
H           1.41285016087534   -1.35865120600323    0.54002908738456
