    26
        -50.44928178  Gyration_radius:  2.47057576167 Dipole_moment: 7.773
 S          -1.61509691732071   -0.41462356339078   -1.49959290423171
O          -1.78913270936420    0.43431377762180   -0.33976002050220
O          -2.40905262927949   -0.12299093909528   -2.63180386760083
O          -0.09427902794701   -0.41060455971341   -1.85641295658887
O          -1.80889595369124   -1.88034927793167   -1.07593199621237
H          -1.30722416919589   -2.07441840037510   -0.22415487062013
H           0.16607055812264    0.52021670396657   -2.16777745463904
O          -0.64827410955838   -2.40838428035405    1.16767494779744
H          -1.22007112206813   -3.05257468103775    1.58986496215821
O           0.63474114247354    1.96065604310964   -2.39596265089137
H           1.58646504306625    2.07514167113327   -2.43909348461187
O           1.37398707654368    1.06154227515782    1.68173269566236
H           2.09008052644451    1.22792498126718    2.29520819289415
O          -1.07677014278638   -0.08155053817270    2.19981559864345
H          -0.79041235757749   -1.54060505630119    1.66071344924556
H          -0.23104752000927    0.40164182159441    2.20286114015595
H          -1.53188537456539    0.22114456874070    1.39328523247850
O          -0.19040273794933    2.60648906142710   -0.01764431117186
H           0.33353728714400    2.37099271984527   -1.53563089164476
H          -0.94575802004609    1.99636352939965   -0.07401812167575
H           0.40996300954619    2.20844095159279    0.63457328025249
N           1.88064294777502   -1.11102524190743    0.23331543250169
H           1.63160843929467    0.26506260070762    1.13293973889981
H           1.37817381512119   -1.85562971764263    0.70561957681484
H           1.37420494730750   -0.93549499590945   -0.63056550140715
H           2.79882799887858   -1.46167945406809   -0.00925523537696
