    26
        -50.44131482  Gyration_radius:  2.68863461925 Dipole_moment: 5.686
 S           0.16165031210201   -0.37902147748076   -2.71433219535633
O          -0.45115968530487    0.92259531604748   -2.76332404648541
O           1.09018443061722   -0.71100330867767   -3.72756028542969
O           0.83201295767422   -0.51760654116773   -1.30235351104419
O          -0.93427984786814   -1.46982138604239   -2.65105251017732
H          -1.53187644046815   -1.28140101512177   -1.87556540435462
H           0.78093677264070    0.36751673693430   -0.81031237925345
O          -2.43104668872200   -0.90813039535782   -0.59494015409151
H          -3.36208299589298   -1.06057278090407   -0.76622700399637
O           0.59583171384158   -1.04035992016593    3.09683134414411
H           0.76505027724285   -1.78893899044341    3.67004271818079
O           0.76954968007422    1.69328373266985   -0.02615419384881
H           1.26407321041329    2.33105899035708   -0.54387064652053
O          -0.26569174961745   -2.08595236773081    0.76250519789607
H           0.24026995363676   -1.41838920677753    2.26386560488377
H          -1.15130369620738   -1.81046546000487    0.49065817865151
H           0.32377665819536   -1.76336680395431    0.06843385197339
O          -1.92747442166197    1.61979971395095   -0.68267695883833
H          -1.18577603931983    1.81936207751898   -0.09536628020710
H          -1.51066926516999    1.54513394363375   -1.56656363526131
H          -2.31053485073067    0.08918545066405   -0.53378070768362
N           2.12123526156488    1.17442216951206    2.13461288308723
H           1.30030789384284    1.51019486140992    0.82979013469553
H           3.06177528389587    0.83884017088330    1.96867971928322
H           2.16800909324847    1.91756073626919    2.82013916932078
H           1.58723216196776    0.40607578396905    2.54852110043546
