    26
        -50.46788069  Gyration_radius:  2.39859475061 Dipole_moment: 5.646
 S          -1.30767690392176   -1.02893443917839   -0.69988334233237
O           0.03185572612375   -1.25572891237920   -1.29174821131306
O          -2.01146539673063   -2.26142199605468   -0.46897827805382
O          -1.16559578950682   -0.23493973935172    0.51560978754562
O          -2.10524206286621   -0.17201554065927   -1.73078194569327
H          -1.66793645430184    0.71246016669158   -1.75935253798975
H          -1.45135770182532   -1.79564463670886    2.37651249882723
O          -0.99952267072958   -2.53712224401657    1.96318249820942
H          -1.43965393059606   -2.61823940370236    1.08483757935572
O          -0.95213631351841    2.23184707288037   -1.67529870148457
H          -1.60728613685974    2.88368170836233   -1.92995497507294
O           2.06652775382535    1.02000031630628    0.93919146396488
H           2.96413153454043    1.33665709532377    1.04840483498417
O           1.50568466974933    0.91283311054131   -1.60943099135106
H           1.88735377733420    1.02605591257103   -0.04600307891247
H           1.01071204236284    0.06421871190393   -1.62986480749820
H           0.85188966342899    1.57590793025333   -1.86524921226249
O          -0.50727204736226    2.26109471493734    0.89403649663097
H          -0.87522895074809    1.34971642971258    0.89959641765465
H           0.42820480242336    2.12811934128129    1.09631675834530
H          -0.79703498817546    2.35338397113946   -0.69310531288998
N           1.26076794509726   -1.59904307054460    0.94110081407701
H           1.54381922515714   -0.63002439821901    1.19316770598268
H           2.04412321232364   -2.24220864237216    0.99107617604861
H           0.43293975928628   -1.94504220578712    1.51122185312536
H           0.85939924550053   -1.53561125292832   -0.05460348990831
