    26
        -50.44928169  Gyration_radius:  2.47065430404 Dipole_moment: 7.767
 S           1.19001077824754    1.87467544714567    0.31072346436027
O           1.69380852143856    0.54369106666046    0.57684918824011
O           2.13831780379905    2.85798690670557   -0.05121241486019
O           0.06942064210566    1.74183830400721   -0.76945284529190
O           0.36895487000293    2.34647607031824    1.52267965539914
H          -0.25260051952851    1.61881998770786    1.83729568194566
H           0.49052350093441    1.43782814031826   -1.64204288035960
O          -0.62862615639158   -2.29081213940061   -0.44803033761539
H          -1.16107972381979   -3.07051438722144   -0.60748244470475
O           1.05704957661107    0.74453684990824   -2.88497650475761
H           0.40120885440962    0.45750610163459   -3.52392512169108
O          -1.15560939258259    0.48375616211216    2.45324090043966
H          -1.17156427791927    0.63504279993486    3.40035930057633
O           1.76952736902167   -1.28659255648200   -1.42863126809666
H           0.97003067968709   -1.77288803651005   -1.16652646095706
H           1.42655492055732   -0.08138267882782   -2.45998748045303
H           1.98010042028141   -0.71541878268186   -0.67011726181053
O           0.48131848023847   -1.44088517401138    1.92423449621952
H           0.12868041861177   -1.92775657116031    1.15787802063611
H           1.12952771290998   -0.81965948592022    1.54589261328495
H          -0.57335820188428   -0.32623553611772    2.30768076221160
N          -2.17223189994211   -0.13031593005470   -0.29263185700527
H          -2.31104896886179    0.01327826069483    0.70239920809327
H          -1.24751342029909   -1.50413300856743   -0.44226531010305
H          -3.06592661318318   -0.00587558218885   -0.75165516454053
H          -1.55547536445004    0.61703376198832   -0.60029594914721
