    26
        -50.45371813  Gyration_radius:  2.52367044944 Dipole_moment: 7.373
 S           1.45984181384573   -1.46944265474944    1.02116503806766
O           2.05997485887323   -0.29239856424286    1.61964928555476
O           1.65511972814507   -2.70702799982611    1.68674912042756
O           0.00936895910781   -1.18547158844946    0.75945091848791
O           2.06213218886517   -1.60135982464866   -0.44557150685776
H           2.07996558067322   -0.70625888576280   -0.82501645148252
H          -0.24604032493202    0.27197547108292    1.54357520087026
O           1.75136574539266    0.79437437046857   -1.72868344971908
H           2.51493136193961    1.11084696738380   -2.21270389520122
O          -0.57941456612125    1.11787707339030    1.92242674919175
H          -0.18435869443531    1.17372662040648    2.79461735554471
O          -2.92326338500119    0.35368363362133   -1.35941748517181
H          -3.08500997712228    1.29661085122587   -1.30204751120429
O          -2.70614570011406   -0.48355602165580    1.13318775672944
H          -2.27337266741593    0.27244512879388    1.56106730171773
H          -2.99778849625128    0.00391918564512   -0.43256370969964
H          -2.01752033877601   -1.16058975711202    1.10969742604874
O           1.62106673277459    2.02091262041090    0.51423152959465
H           0.72191454909358    2.12726536967938    0.86049468847028
H           1.95666467164119    1.23136788292543    1.00783938428545
H           1.68254545618542    1.37319823569989   -0.90341966929042
N          -0.51696005842895   -0.70952027830246   -1.69628697585044
H           0.23678130319588   -0.06687543711098   -1.98415334177877
H          -0.51327654036245   -1.54364282986471   -2.27369124625393
H          -0.30530779137932   -0.98053619724695   -0.66267795573220
H          -1.46321441960007   -0.24152335191656   -1.70791858674940
