    26
        -50.44968557  Gyration_radius:  2.43959715198 Dipole_moment: 3.943
 S          -0.40313288527027    0.76667826903538   -1.50309527704750
O          -1.14968093143972   -0.28550362503464   -0.84535492327996
O          -1.18571264126849    1.71727112707610   -2.21278096835157
O           0.45377784140979    1.48268595233385   -0.42880553665647
O           0.64634120281312    0.12807479784046   -2.41113871823092
H           1.11984916037557   -0.62203021007440   -1.90805605006935
H          -0.16190021941744    2.22321624008309   -0.07258670600877
O           1.75344567337076   -1.81310011900128   -1.18623133532921
H           2.05562965420081   -2.44270326598342   -1.84467210829606
O          -1.36759559342504    3.08706832283523    0.20971841885080
H          -1.69529859798093    3.16498451737429   -0.69485194986064
O          -0.31396983069967   -0.78018201723488    1.75897072892356
H          -0.54845890980593   -0.45385123364805    0.87801162691475
O          -0.31080412884186   -2.83743609657893    0.01285543271063
H          -0.29682055388466   -2.37796396415913    0.87907549483384
H          -0.98655957450942   -2.36469648716296   -0.48780009037271
H           0.99878926854714   -2.26307828738436   -0.69292470299290
O          -2.66626781241767    0.94647512782873    1.08613547837362
H          -2.23452884564159    0.51486454116244    1.83282788901568
H          -1.97021957734863    2.44892100821275    0.66442790323521
H          -2.42406130067788    0.41864365332709    0.30931858664798
N           2.30271561861019   -0.11501679813939    1.35142158491174
H           3.11010317903321    0.04911561510410    1.93887954864704
H           0.63725946611391   -0.56237741218227    1.85440205191839
H           2.07268249161888    0.75182563153187    0.87817747263073
H           2.56441787663339   -0.78188528717179    0.63407615880066
