    26
        -50.44968556  Gyration_radius:  2.4395719904 Dipole_moment: 3.945
 S          -1.49827975140903   -0.29386570406544   -0.82363793918154
O          -0.77853215143244    0.96139268744937   -0.76598048495995
O          -2.18947615830101   -0.54468525424214   -2.03979210219359
O          -0.48633741508103   -1.43380906189578   -0.54494675630899
O          -2.44326528394747   -0.37178784840417    0.37412969750960
H          -1.94745270499316   -0.08371556128449    1.21747832584588
H          -0.11661531628336   -1.67059147101576   -1.47317095772003
O           0.20628068179240   -1.64646299437090   -2.94791602104631
H          -0.68198924994688   -1.46615777057022   -3.27979825683052
O          -1.23115248683736    0.44872302614295    2.46012544459989
H          -1.88932970866457    0.80182752362912    3.06295904530768
O           1.79086696404500    0.72235827901116    0.26706030490587
H           0.91539580979039    0.64751969653848   -0.13975204883493
O           1.19820986698709    0.79765325101514   -2.66687886959793
H           0.70608950552577   -0.79764798274063   -3.03073068847739
H           0.42264782688529    1.11071499087595   -2.17577133214222
H           1.93174800276926    0.84411232115538   -2.04239980435781
O           0.09645521701091    2.44763812510876    1.46495275314974
H          -0.68906256859777    1.23675891939927    2.14329294446622
H           0.94973132632305    2.02999696526383    1.22201993762694
H          -0.38005341726420    2.50253599755629    0.62782969600745
N           1.23391388265969   -1.36222045091810    1.94045145861300
H           1.83226731741078   -0.02860120418586    0.89609286891056
H           1.77532942482017   -2.00855716942215    2.49992074713814
H           0.52055855677331   -0.95241823436656    2.53290200362556
H           0.75205179999560   -1.89071106562293    1.22156005392298
