    26
        -50.45259537  Gyration_radius:  2.6439859624 Dipole_moment: 7.879
 S          -0.90673422940256    1.58399433150961    1.85134630062710
O          -1.64431614446395    0.48332052843282    2.43666485833304
O          -0.63531758649538    2.70181932075818    2.68404636237913
O           0.33072008523471    1.05481803161233    1.18576298948298
O          -1.76686377693880    2.11060805281753    0.61317568257912
H          -2.05564139173617    1.32097593225094    0.12399757309785
H           0.74194406130583   -0.46634820887493    1.37876111865968
O           2.33522613788178    0.06266159289983   -2.38355748301555
H           3.18950258304449    0.48826510421204   -2.29398868289137
O          -2.17846948473909   -0.02182912217746   -1.03978456594726
H          -3.06918775866210   -0.17502303368458   -1.35670719569528
O           0.97096299614319   -1.43484163335499    1.43027113531617
H           1.26582904678188   -1.58222645649077    2.33006703190740
O           2.42668720242369   -2.02112397791222   -0.74884445601703
H           1.95124578731921   -1.79255418402325    0.07940934990483
H           2.06106353426781   -2.85585564873071   -1.04559332262565
H           2.38411910538384   -0.75267666912386   -1.82710949266622
O          -1.73802325183182   -1.61342600122000    0.91593148399036
H          -0.80608664934892   -1.86975238249623    0.99109689687311
H          -1.83061425425477   -0.89511972849524    1.59343940618999
H          -2.00747493846987   -0.72999556710024   -0.33761356994053
N           0.20155367372101    1.29081687889340   -1.34420953423821
H           0.08118794568984    2.25931259038797   -1.62196200539600
H          -0.66116934602266    0.76056591272387   -1.54059046147413
H           1.03328391089405    0.84967579773640   -1.81509980112827
H           0.32657274199441    1.24393854943396   -0.25890961819926
