    26
        -50.46846774  Gyration_radius:  2.39941872587 Dipole_moment: 5.639
 S          -1.72928987201697    0.55092542444387   -0.13817791255297
O          -0.85265389055590    0.82968990306342   -1.30166388835528
O          -3.01580322441790    0.05279661149357   -0.54334396436859
O          -1.04129335354364   -0.35996789406930    0.76967835149258
O          -1.91455418704536    1.90777007418486    0.60591815295598
H          -1.03082845982212    2.13190591070980    0.98503525024318
H          -2.04185415329948   -2.52641252083727    0.43984073641888
O           0.53983407126656    2.52734407826277    1.43289730475309
H           0.58668703486091    3.48308288194311    1.49316463845089
O           2.26505201786147   -1.04442702386377   -0.05613973739810
H           3.01664882493935   -1.59431648893889    0.16831828697313
O          -2.19911221438613   -2.46663943087261   -0.50736321191126
H          -2.66958290582560   -1.60655852875907   -0.60892027825481
O           1.16982318827812   -0.16215509885594    2.12935007128708
H           1.22334442255653    0.79388109746813    2.24380095938803
H           0.26948690993576   -0.30215994149549    1.75678151616361
H           1.88543047565878   -0.72745903795965    0.81775133929128
O           1.60312526816363    1.65270205920058   -0.78561269005295
H           0.70285712696015    1.43821742981084   -1.11463736583682
H           1.03402326681333    2.27160728702703    0.60392350598076
H           2.03416241143237    0.79946955387330   -0.63938371508433
N           0.05424074991362   -1.56011632906786   -1.56856707711377
H          -0.76130823608070   -2.08049446229991   -1.12789978202293
H           0.26783532366986   -1.91284115955959   -2.49569887937843
H          -0.29535256711811   -0.54409047990345   -1.60089560816620
H           0.89908196180628   -1.55175393500531   -0.95815599289016
