    26
        -50.45147865  Gyration_radius:  2.46499186185 Dipole_moment: 6.093
 S           0.82515596345825    1.24827408821398   -1.87336362852532
O           0.68032523226255   -0.17618182938853   -1.65696433078980
O           0.74844694088508    1.68371704953487   -3.21815308221596
O          -0.22652830453877    1.97217739015418   -0.98315122949018
O           2.12979509400661    1.72512185069278   -1.21650153427888
H           2.01466078975566    1.50251327910597   -0.24399590372702
H          -1.10420024537991    1.47908520702434   -0.94532685729830
O          -0.34044431720890   -2.42723078677157    1.25506394989419
H          -0.27455398369756   -3.36329995241564    1.44763855730138
O          -2.44088175978988    0.68983670822375   -0.80360869619677
H          -3.01265038567900    0.88440388192784   -1.54831533685316
O           1.70037587556560    1.17964487450016    1.26140820809408
H           1.86356012348964    1.98961377292833    1.74770496430254
O          -1.49018294474884   -1.68724386499480   -1.11490024380197
H          -2.16730692312902   -0.27607308017640   -0.90310756747480
H          -0.67437833394879   -1.33435707934031   -1.50926581554413
H          -1.21321516678606   -2.03701953460865   -0.24516989985002
O           1.94656592551724   -1.47411263790064    0.33329293220589
H           2.19312399652664   -0.70880874845642    0.86533953132520
H           0.56063893572466   -2.14167519407939    0.95113217034158
H           1.59002531169739   -1.09912263163098   -0.49373311372422
N          -0.75772611721987    0.46313712671437    1.81464829630549
H          -1.42974664376071    0.79692240483372    1.13337907745164
H          -0.76179350182490   -0.55264663254152    1.77342159119103
H           0.72541684134598    0.92871603672768    1.43902138590115
H          -1.08448240253024    0.73460831170409    2.73350656545350
