    26
        -50.45911231  Gyration_radius:  2.43538099154 Dipole_moment: 3.786
 S          -1.38567566414657   -0.91639278144033   -1.38569372224722
O          -1.84543833247092   -0.32432112683294   -0.13758859890419
O          -0.59388084753593    0.01348311958061   -2.17123653420621
O          -0.73494324399469   -2.19167062605066   -1.17185792422789
O          -2.67681461021088   -1.21754073416847   -2.25268723834969
H          -3.00201355400711   -2.02259948431327   -1.86372956921141
H           0.82909391660198   -1.68024475745430   -1.08540494550114
O           1.74469756858632   -1.32788499120883   -1.02681457215995
H           2.05579103947125   -1.29009011839776   -1.93344812275115
O           0.20135473552811    2.19850623948812   -1.22732091887585
H          -0.16019090693968    1.37170440284062   -1.71882301716917
O           0.81232488320901    1.02590072893568    2.30095215608309
H           1.09757590314927    1.09967755631078    3.21169849489724
O           2.14577482273554    1.14307939378774   -0.05834462412654
H           2.07371179186841    0.21205202048467   -0.36990781905431
H           1.10579277074345    1.85037997667926   -0.79985374560121
H           1.81841185180967    1.14701592902555    0.86251605593152
O          -1.23925876597132    2.05813168191663    0.81438087979709
H          -1.63987820422276    1.20369649526583    0.53786572891070
H          -0.57828215986957    1.82360130403284    1.49363294074987
H          -0.44133253948571    2.29849425828993   -0.39543642713542
N           0.06923182596099   -1.40750856551494    1.68966734897093
H           0.53241740394218    0.06549598050544    2.14941023563611
H           0.78674091483617   -1.86613062248707    1.14019425026722
H          -0.28633101788592   -2.08415450659564    2.35331318528892
H          -0.68887958169837   -1.18268080267731    1.04451652299482
