    26
        -50.45259535  Gyration_radius:  2.64406074603 Dipole_moment: 7.880
 S          -2.09851496049663   -0.83966920610662   -1.28438477893896
O          -1.31215680417673   -0.96782393632949   -2.49405203728628
O          -3.30644831704716   -1.58268351274222   -1.21119783066635
O          -1.21580407485041   -1.06728203667448   -0.09135859696674
O          -2.48030857291104    0.70443627329986   -1.14234754207440
H          -1.66699346878084    1.20618087176392   -1.32400750641770
H           0.27151298240863   -1.58372774773896   -0.29559847444400
O          -0.14188453629849    2.11162571735478   -1.16129291807082
H          -0.08581533758667    2.87618538378745   -1.73535161453371
O           1.22853331196745   -1.83553697870659   -0.41271915208738
H           1.22057077555605   -2.74622493468946   -0.71088830551444
O           0.90260170226127    0.56379371542334    3.16330391835836
H           0.63064422443300    0.02543673610814    3.90837228108873
O           2.54563924210734   -0.97372555725236    1.76318819242982
H           1.56652436794626    0.02179939493232    2.67116868831530
H           2.05373016382881   -1.34630631834831    0.99929566464212
H           3.34486891386016   -0.58600111317850    1.40340256974000
O           1.02024732416867    0.14947023355976   -2.32373121066439
H           0.40848563461642    1.38868686372929   -1.60658025638480
H           1.41871593943746   -0.47630607802774   -1.69966048899004
H           0.16321133182679   -0.28688927599331   -2.56591293320119
N          -0.89574864013473    1.06928668795470    1.25232330113693
H          -0.50119873774875    1.69070002115977    0.52969817417334
H          -1.07238573259960    0.11624342019217    0.74607984652713
H          -0.21590081488107    0.92831889885096    2.04356530466396
H          -1.78212593717322    1.44001247738180    1.57868573495890
