    26
        -50.45911197  Gyration_radius:  2.43534967981 Dipole_moment: 3.788
 S           0.64239363173505    1.45152043759802   -1.46990276689465
O           1.23597392176635    0.12338752338973   -1.41019188392553
O          -0.80528010095227    1.39804292276086   -1.56947188258298
O           1.11663279361985    2.30417104330999   -0.40055151606005
O           1.13980308940113    2.11464511738133   -2.81983218898870
H           2.02268827556086    2.39218982460257   -2.59911890084820
H          -0.08628809436570    2.04852093589014    0.69606064879026
O           0.12707720007090   -2.21565294297261    1.44164856595012
H           0.39634762099367   -2.85621708941627    2.10004622484658
O          -0.81744072628676    1.85520199585055    1.32376321986648
H          -1.51077604818166    2.47870829744358    1.09864742659123
O          -2.07636576038746   -0.73965360986263   -1.23410480186674
H          -1.63039753339079    0.15364189040302   -1.47681493334070
O          -0.03326364073492   -2.18371836865480   -1.28899757858160
H           0.06728810336448   -2.40113224519526   -0.34246297782420
H          -1.30295394143223   -1.44861629668441   -1.35532259516138
H           0.56713171534878   -1.42039646381306   -1.44394009792088
O          -2.00657765598652   -0.55035341567397    1.26010669805422
H          -2.19041452422773   -0.67615160073029   -0.18311324216772
H          -1.32020642569758   -1.21495599187193    1.46583829686776
H          -1.57815054756748    0.32867516201119    1.37324839032531
N           1.69084160346090   -0.11791827862387    1.40308847657428
H           0.78399086942070   -1.44720301275720    1.48213123885031
H           1.23493858576060    0.66784250680219    1.85232294688737
H           2.65973821342120   -0.11728716589074    1.69624249525454
H           1.67326939528814    0.07270884470791    0.40068072729873
