    26
        -50.46846772  Gyration_radius:  2.39940981304 Dipole_moment: 5.641
 S          -1.42154859666674   -1.13345052459809   -0.09115244074673
O          -1.27903250187659   -0.35142822484121    1.16112785826439
O          -1.75495776236706   -2.50744993566389    0.17019999203084
O          -2.57924240081183   -0.46739776276337   -0.89439312587033
O          -0.20211591649408   -0.99738215393491   -0.87971679025257
H           1.01285880045032   -3.05889512142521   -0.60590841945304
H          -2.24277702685965    0.41894488342209   -1.17024099219690
O           0.78865142284529   -3.23431751177725    0.31301448253996
H          -0.19331840188540   -3.15248977181497    0.33019642245512
O          -1.66376499975635    1.97411305227568   -1.43586756856659
H          -2.42493615700888    2.55079185833983   -1.52137774132274
O           2.10585399251218    1.28630522110837    0.36551225069794
H           2.99503774036705    1.62438665189572    0.25288786240521
O           0.97890661594310    1.05327020112521   -1.96447489755046
H           0.56484403791897    0.20016558658984   -1.70028354833625
H           0.22566807781272    1.63963062295246   -2.10159526310854
H           1.71726620455910    1.22102247149100   -0.55815442560354
O          -0.56382442048138    2.17965444461722    0.92304138860398
H          -0.91196740276052    1.28884434036769    1.14656557919522
H           0.39507679452852    2.07235082996436    0.85731072810348
H          -1.25870790472135    2.17056168857412   -0.54463090754847
N           1.17758928704148   -0.95625137782284    1.61127853489333
H           1.50037538446644   -1.05440954109398    2.56824925959985
H           1.20210986245807   -1.88278768693047    1.09092939462120
H           0.13903061191833   -0.68145179423279    1.56846420870845
H           1.69292463885800   -0.20233044581704    1.10901812841785
