    26
        -50.43891927  Gyration_radius:  2.47080553389 Dipole_moment: 7.244
 S          -2.04738277628852   -1.05765746894195   -0.49341174162768
O          -1.04167665684186   -1.97070566651087   -1.01955172338401
O          -3.30746617444425   -1.06485843213249   -1.16609846715370
O          -2.37321378601211   -1.60215408612525    1.00306567660983
O          -1.46499931935465    0.25987834711337   -0.26326369344514
H          -1.06061076585284    0.82952416167180    1.06031383348225
H          -3.24771990820981   -1.95004881661297    0.86423404335687
O           2.42036112069847   -0.18609606640632    0.20015486424869
H           3.23211317489103   -0.33993326958250    0.68447776532047
O           0.28495771851918    2.19678431026262   -1.84299481622954
H           0.83379456525409    2.55289406281137   -2.54483042350404
O          -0.67846749227561    1.33250402479833    1.85486370843606
H          -1.31654391467846    2.02137104299715    2.04953642364888
O           0.71748505271984   -0.34488641404203   -2.16572436960562
H           0.01570665851023   -0.95244917300053   -1.85067030090815
H           0.24076164189478    1.20790154352019   -1.99862511823505
H           1.45601001361634   -0.47283073866915   -1.55792702707168
O           1.28262207849917    2.06150744015954    0.44850161899950
H           0.84257306168013    2.20118586840135   -0.49999093657298
H           0.49145233522902    1.82652536382372    1.08593441958429
H           1.80969237383472    1.17670434077693    0.35430713008332
N           0.54332140708155   -1.59733427623998    1.22242674944984
H          -0.02802399219706   -1.05168703493635    1.85692207888950
H          -0.04910240403919   -1.80746640540507    0.41184168511585
H           1.68726309559568   -0.79210057278720    0.63006880808187
H           0.75709288216987   -2.47657207494508    1.67643980243369
