    26
        -50.44023249  Gyration_radius:  2.54339016058 Dipole_moment: 6.126
 S           1.92163542684561   -1.54613208875566    0.50204798259838
O           0.80607051792545   -1.00379873080386    1.22830379195078
O           2.53805776253497   -2.70749977639793    1.03104551362713
O           1.43638990211524   -1.78862299933128   -0.96939552926440
O           2.98702490011399   -0.44737161814649    0.28425627443882
H           2.54800354923716    0.25762260119803   -0.27724839099399
H           0.45680474444508   -1.93372467102614   -0.92369437935463
O          -1.90018626832514    1.73512057944413    0.37196005606065
H          -2.30543331440458    2.60100960446776    0.42555447608779
O          -1.14078816600417   -2.17156483244182   -0.80182622060563
H          -1.21581049619042   -3.09979206474250   -0.57306136116936
O           1.81953656399148    1.26191643610823   -1.25671733587097
H           2.28269928996220    1.19736009058395   -2.09434334381995
O          -2.71398454075027   -0.81404615635472    0.84654954810152
H          -3.61054731188325   -0.80527257889429    0.50557756568649
H          -1.61569523568264   -1.67851914012225   -0.08373551547109
H          -2.39800390624195    0.10888344069340    0.81510489354217
O          -0.66987950630076    0.56569607595772   -1.77826355021293
H          -0.83466900724474   -0.37829121516195   -1.68547561396027
H          -1.18892443092670    1.00546846121647   -1.07857200723620
H           0.88154948589888    0.98666617858412   -1.44742567167278
N           0.47292777182123    1.78523048513851    1.45413230209718
H           0.59309650643139    0.77095288567309    1.50915106974328
H           1.16025222069124    2.12607806086774    0.79193414808104
H          -1.00228278476686    1.80210583664165    0.84056733066238
H           0.69215633670580    2.17052513560501    2.36357395695544
