    26
        -50.44238957  Gyration_radius:  2.52164400594 Dipole_moment: 5.669
 S          -1.86106658609092   -1.10671942867913   -1.35824981430288
O          -1.25077055747486   -2.19286991986611   -2.05442785122633
O          -3.25251076420783   -1.13318704921191   -1.08378537012921
O          -1.11033280844271   -0.91564015219283    0.01071838414489
O          -1.47326344128188    0.20341746601779   -2.10835708874536
H          -1.64716081355399    0.98732827160714   -1.51652751410312
H          -0.15649499998662   -0.89374163003055   -0.30249863113994
O           1.39741396916474    0.88148007122291    1.78272098739355
H           1.88990736987162    1.55192977778764    2.25890203255407
O           1.08997054382808   -1.05316080405894   -1.26817514757672
H           0.62651472517863   -1.70337229263378   -1.81594525183452
O          -1.70605208783455    2.17678170498899   -0.43923836764039
H          -2.56587802076467    2.60047872023047   -0.45521020556539
O          -1.32626406793405    1.06964332885001    1.90084658116644
H          -1.58700492709194    1.81553301023349    0.48800235700062
H          -1.58717431013084    0.18447368072631    1.62008289768818
H          -0.35426089319427    1.01911411793156    2.00575154148583
O           1.13566267289045    1.67853648223444   -0.73043714396061
H           0.24502698355354    2.03204672234019   -0.84099914254074
H           1.37165062279813    1.18351511695461    0.83846569305918
H           1.16616838558424    0.84118299971536   -1.21552804790479
N           2.25958051124170   -1.91316927166869    0.95565603816196
H           3.25141960646649   -2.07928611804841    1.06843895793281
H           1.65515085503397   -1.51931337272536   -0.59481497038412
H           1.76143627779089   -2.66607700466934    1.41337046802970
H           2.02833174459172   -1.04892440706594    1.44123861843792
