    26
        -50.45708436  Gyration_radius:  2.51575180355 Dipole_moment: 8.106
 S          -1.36087226762445   -1.63987819899812   -0.74278601715063
O          -1.36271190078800   -2.00994175654290    0.67705719806740
O          -1.32026837289200   -0.21411853802541   -0.93329338325813
O          -0.31063544707963   -2.34608684711781   -1.46193633289760
O          -2.73547876988267   -2.15377585638716   -1.32917674211945
H          -2.66733114913221   -3.09568301556345   -1.21078521080548
H           1.03737502157964   -1.60520837984415   -1.15958332772364
O           1.88254993397362   -1.18473104684627   -0.83092040341009
H           2.59349910296861   -1.60566725082796   -1.31757927907518
O          -0.54540728836998    2.27438410549152   -1.78124721361279
H          -0.83971991907529    1.35386229822943   -1.84772622633700
O           0.73840021319220    1.59742815848809    1.85758845771181
H           1.21444572630484    2.22222946567320    2.40512880973729
O           1.69293019120300    1.62828885272883   -0.52721624766344
H           1.79290121757383    0.69891066669539   -0.77937322656368
H           0.94029916517363    1.96846196003342   -1.07590420196204
H           1.11928280111778    1.68842606001054    0.92290958636881
O          -1.84104669778693    1.98936213770113    0.66761307297249
H          -1.86732913547269    1.14563815608894    0.19080374515797
H          -1.07050950903044    1.93090208922253    1.24635468135633
H          -1.07073853447747    2.62014306965581   -1.04063250242513
N           0.81100956147815   -1.05555983692934    1.64006830254079
H           1.16586294450426   -1.58747266747536    2.42756934859923
H           1.42845757642194   -1.14483673472440    0.80638464198724
H          -0.15156306376157   -1.44091242746819    1.32253895241770
H           0.72659861987134   -0.03416445321423    1.87414350819463
