    26
        -50.46026502  Gyration_radius:  2.46651428719 Dipole_moment: 6.820
 S          -2.12057838901046    0.67003174479811   -0.37671322261190
O          -2.07191624580462   -0.11150338967894    0.87224898366655
O          -2.86816519812058    1.87775918241829   -0.23702213474835
O          -0.57354177047864    1.13778020731442   -0.59080786027186
O          -2.37430361962573   -0.16152505057554   -1.52713358893808
H          -1.23781448988710   -1.23948814154389   -1.78086927999459
H          -0.46257849931999    1.75896532518466    0.13549521995782
O           2.96745256488038    0.43064567446886   -0.28767157421647
H           3.33410747897429    1.29938797055438   -0.45712216778246
O          -0.52165600288899   -1.92613657261964   -1.89047357721301
H          -0.91161387520472   -2.61959958095891   -2.42490903573076
O          -0.72867441761387    1.70927576291284    2.04828035580971
H          -1.28076011950651    2.40085910083099    2.41582590326717
O           1.31417311522315    0.06255710186628   -2.28132668734305
H           2.41827665209127    0.20937295165626   -1.09010746229817
H           0.88083156370581   -0.80665456700430   -2.30928947284094
H           0.62283051847747    0.64590399460397   -1.93565224376272
O          -0.27710790331708   -1.97404259110397    0.79874990897518
H          -1.08143977936420   -1.40394772080485    0.88331123087833
H          -0.19955116129069   -2.12242599094081   -0.16396520928396
H          -1.35700079144502    1.00849524024880    1.72160217371938
N           1.31961715910149   -0.15647253076421    1.71293300191021
H           0.68828346462379    0.62126560583147    1.95370657761172
H           1.99580379065721    0.13185268547787    0.95452793827450
H           1.82297544133923   -0.47078849714465    2.53587324712472
H           0.70235050375444   -0.97156788498503    1.32050900582562
