    26
        -50.46291317  Gyration_radius:  2.57329566355 Dipole_moment: 3.760
 S          -2.32164783456151   -0.36138577246146   -0.08444805857051
O          -2.65409081915254    1.00063898731935   -0.42480575868679
O          -2.17221050506273   -0.60269945868972    1.33362818969409
O          -3.53365416646710   -1.26148670647566   -0.58608148372221
O          -1.16678129558820   -0.87500260829087   -0.83429415533578
H          -0.30645681755594    0.21431263038442   -1.72083061685123
H          -4.28407848448262   -0.81399349497643   -0.20931329092040
O           3.06170912687020   -1.41825073462385   -0.17691032192277
H           3.24183953439903   -1.80582935800584   -1.03475552148005
O           0.23347678336355    0.92631385009928   -2.13817935871797
H          -0.29990195160895    1.27964151552879   -2.85145652014686
O           0.00155839607004    0.52257500262696    2.36722545242981
H          -0.91782181671809    0.19859310534197    2.30491798195789
O           2.56132698679791    1.14246760604970   -0.67374118579064
H           3.02786750365019   -0.44288106716274   -0.32032977616613
H           1.85240096517923    1.07789701091249   -1.33434666738340
H           2.20694545189423    1.66903331562548    0.04758406234901
O          -0.36269485164037    2.16150934043212    0.27904669705057
H           0.01890436517126    1.97073655290086   -0.59137863271683
H          -1.30229185066996    1.92680896712308    0.16091504777286
H           0.01759969635772    1.26980485909136    1.73301144638716
N           0.63464659233153   -1.57941902105228    0.95149841400187
H           0.41563088628337   -2.43155379018904    1.45590671063381
H           1.59806754546018   -1.61637192454466    0.53699137193016
H          -0.08600986651473   -1.41482266471839    0.19913984331647
H           0.53566644615221   -0.73663615226180    1.61100613086222
