    26
        -50.44258730  Gyration_radius:  2.64595622772 Dipole_moment: 5.720
 S          -1.06454709689864   -0.83629377404589   -1.93856767476332
O          -1.98496708601675   -0.32349033544979   -0.94748704430647
O          -1.57544069425275   -1.12107134590212   -3.22557548024693
O           0.11955521843937    0.16389667553119   -2.02381483867429
O          -0.40064776157173   -2.12095760115090   -1.37345070153402
H          -0.15744735808819   -1.98415814721850   -0.41869378900695
H          -0.07105835152052    0.86589496231223   -1.30436428025477
O           0.07554283611214   -1.86610033356904    1.18196852228392
H           0.38370420542497   -2.70195095445405    1.53694897152417
O          -0.48952265931291    1.81926831667940   -0.21565580072761
H          -1.37345665990460    1.43282019744996   -0.16835502196225
O           3.24955130458190    1.18555914163708    0.50683716388798
H           3.87860788966357    1.81369060287257    0.86412661792141
O           2.01880149594535    2.32501882929409   -1.62166331268656
H           2.90262557105980    1.58463184550559   -0.31962903669042
H           1.75078599049676    1.61327880574672   -2.21162242551104
H           1.20743014555949    2.64561501239497   -1.21114805531255
O           0.87964272296290    0.75003050909636    1.71066482740159
H           0.00352685596498    1.48853837967438    0.59641800468086
H           0.69715302585042   -0.19562690053135    1.60331485537375
H           1.79561553392371    0.87971003202653    1.38516291590507
N          -2.48293709320265   -1.49774406125888    1.58563022992836
H          -2.77818900152128   -0.83046078734163    2.28691583031996
H          -0.89586421682246   -1.76303523190430    1.44691233183500
H          -3.12702288222451   -2.27793065545049    1.60392839785100
H          -2.56144194465831   -1.04913318195127    0.67119880278088
