    26
        -50.45212787  Gyration_radius:  2.45270193669 Dipole_moment: 5.977
 S          -0.73926506053217   -2.02983077999825    0.79107556792353
O          -1.25871404623720   -1.36066022237802   -0.38427340932351
O          -0.54935487787770   -3.42887100908018    0.66262257674276
O           0.58952714003193   -1.32732158851647    1.19027345047385
O          -1.61708254502810   -1.68588750648293    1.99926262304018
H          -1.51071572629345   -0.68753248224237    2.10138414422015
H           1.26645567424503   -1.41635761219631    0.44198848676373
O           2.18810761113701   -1.49511467305705   -0.78980552911909
H           2.31911672887538   -2.42208656506489   -0.99976915499968
O           0.15668167700641    2.02260961425882   -1.60666469950101
H           0.47212972621440    2.83320537487792   -2.00683340158482
O          -1.33512732592611    0.86167156672657    2.09173973820734
H          -1.97156607813414    1.24561336958801    2.69857096771530
O           0.36844882084896   -0.60884337347543   -2.40048660733264
H          -0.34861209747251   -0.97003855959916   -1.84919855311790
H           0.29707519130019    0.35745704437299   -2.30441473587775
H           1.58303609573301   -1.12962981845548   -1.50538375452409
O          -2.13470743328114    1.17977246188271   -0.34533803585331
H          -2.01981487812925    0.22560192477561   -0.50673301261069
H          -1.65743523092206    1.09037660134711    1.16556901759835
H          -1.44220096195319    1.60867304613452   -0.87805645191477
N           1.53924237595074    1.43611036877501    0.58369488036755
H           0.86006846378170    0.99836074553525    1.19880580442325
H           2.19529054260812    0.71279793321405    0.31103762122721
H           0.70522035816954    1.86247708914427   -0.78339729885581
H           2.04419583588730    2.12744703990890    1.12432978591083
