    26
        -50.44258723  Gyration_radius:  2.64621354308 Dipole_moment: 5.721
 S           2.09642203361501    0.63002080705008    0.89464257822766
O           1.81133887536922   -0.78217333706275    1.02439054602783
O           3.41564847143043    1.06211960822170    1.16198736570919
O           1.65458664145592    1.05677567799218   -0.53095577057168
O           1.12199894585299    1.41369488099035    1.81479941568763
H           0.20695741108681    1.03045999238101    1.74226343774599
H           1.23357084189508    0.21999713648093   -0.94223248143650
O          -1.24715987177868    0.31446028289975    1.79600575250589
H          -1.80618066144013    0.74214472036104    2.44731876646282
O          -2.01549406078649    1.51179589999899   -2.42560538458263
H          -2.57554716855953    1.48280112437845   -3.20244359305381
O           0.65211149558878   -1.08864717692176   -1.41024117682074
H           1.03683928123926   -1.56683433266684   -0.66444728854184
O           0.55778464121973    1.20319731051159   -3.21693988983086
H          -1.09091133651381    1.50626871940882   -2.75400993425886
H           1.11231574695671    1.64820806759162   -2.56818349011590
H           0.68164966280490    0.25916648696725   -3.06514295613197
O          -1.81565928811097   -0.60593994511524   -0.77341039535705
H          -2.01453595333256    0.15823029072881   -1.35507955562123
H          -0.32968120302438   -1.00135833784500   -1.20894587075467
H          -1.73781270063602   -0.23894848690673    0.12007870939786
N          -0.18693407257559   -1.90055581779917    2.69819104007578
H           0.04923778042334   -2.00671269261974    3.67635736877507
H          -0.54242294821049   -2.78694172777271    2.36321358409709
H          -0.94255157021357   -0.56711987751753    2.18911324164982
H           0.67442902623776   -1.69410928374887    2.18927598070271
