    26
        -50.45025664  Gyration_radius:  2.47359588564 Dipole_moment: 4.717
 S           2.33257178671305    0.56569792837778   -0.29623289315423
O           1.42320394922096   -0.41181668994697   -0.85149339199092
O           3.38585641726653    0.99004997431933   -1.14214619171675
O           1.48745215182855    1.77444147554903    0.20021553315447
O           2.89365483212616    0.03507830724314    1.03720221131763
H           2.08593883263065   -0.09900119736856    1.60848834216700
H           0.64398752779920    1.90770793590283   -0.33098909143496
O           0.72787049846596   -0.21243363642497    2.43154081872283
H           0.83931516484430    0.26852000023486    3.25354719353651
O          -0.70983348038760    2.13625663444822   -1.08347108192959
H          -0.61121382068485    2.83712964609431   -1.72935046877515
O          -2.21430957314105   -1.57196486913672    0.08909028028940
H          -2.83054981600040   -2.14057112200935    0.55229990753266
O          -1.41494092564421    0.74243902038780    1.28881460839786
H          -1.80996338760920   -0.03247940099835    0.83965900829494
H          -0.07141811754156    0.19581258700080    1.98308427384036
H          -1.26476598262897    1.39861222797494    0.59792159859441
O           0.26119201910787   -2.33480132260954    0.61871122514641
H           0.44850045187439   -1.96925195375593    1.49108143411079
H          -1.31165995101349   -1.95524722807042    0.24308418778762
H           0.74425944596100   -1.75611187785649   -0.00188033082279
N          -1.05846575471162   -0.14448938220773   -2.24904631855749
H          -0.12584755048639   -0.48354586846447   -2.02271805468040
H          -1.23800495361779   -0.31941523201243   -3.22865832805668
H          -1.71454878462782   -0.69011245361277   -1.69865688426140
H          -0.89828096971518    1.26949650689636   -1.60009758748915
