    26
        -50.45977525  Gyration_radius:  2.60928949011 Dipole_moment: 4.012
 S          -1.23559394095022    2.36125318096140    0.22975369917046
O          -0.38120371949621    1.85619529359250    1.28867787666529
O          -2.26074582494435    3.26786446198258    0.63681764612700
O          -0.27607021680100    3.19500650967411   -0.75927725193936
O          -1.70121074857748    1.24327578774992   -0.60650258449085
H          -0.43841842026333    0.84601168963463   -1.51032977207036
H          -0.62343325773230    4.07042209304382   -0.63193979185761
O           0.36996753904796    0.54034304570276   -1.99582192326438
H           0.44023603235812    1.10466226320595   -2.76677934060957
O          -1.62035600320269   -0.83851324817752    0.91067043769592
H          -2.25856930909409   -0.68078123508679    1.60780664915519
O           1.47460349963927   -3.23836349825378    0.04787921441016
H           1.21084952161063   -4.14624799157332    0.20079398818492
O          -0.38155099479234   -2.06235921235084   -1.41325097153115
H          -0.04950125326346   -1.22595961721353   -1.78034764726486
H           0.84752223753309   -2.87768750108940   -0.62969998174365
H          -1.04033825819321   -1.80693756520838   -0.75589281188607
O           1.85654158062625    1.06517899198534    0.22807893284812
H          -1.66871351510897   -0.03200360593035    0.32899720198035
H           1.56169927040408    0.90207209407460   -0.68693143116769
H           1.11377187157164    1.56777910679899    0.63718780611430
N           1.01917817196183   -1.03821802159944    1.50583296063787
H           1.30878799607927   -1.94116370901814    1.06263262850368
H          -0.01374691798176   -0.91704096028102    1.37592250886308
H           1.26058568678811   -1.00378081264133    2.48963295365048
H           1.48570899278735   -0.21100753997723    0.98608897381311
