    26
        -50.46846755  Gyration_radius:  2.39932820901 Dipole_moment: 5.642
 S           0.11224119273829   -0.75447270055590   -1.65291505425758
O          -1.21825317386801   -0.79803703450242   -0.99860453861908
O           0.44615711562373   -2.00860060697018   -2.27182841160970
O           0.02641071332445    0.35198936771451   -2.74715404247763
O           1.11024832240582   -0.33301127849022   -0.67639606559541
H           2.31354438801276   -2.32047776920645   -0.03920763320021
H          -0.05575743347292    1.20790963265273   -2.26174516855651
O           1.58167256753370   -2.94419516339157   -0.06875552895142
H           1.18103899220574   -2.78779691621848   -0.95553427389415
O          -0.16552452323891    0.66365757166037    2.39939502882388
H           0.07899924916420    0.91532995347472    3.29076007602171
O          -0.38190050183688    2.59185324758091   -1.36589167294740
H          -0.85964749042331    3.19508145614940   -1.93784664433147
O           1.41791027236538    1.84737270508511    0.71259178177167
H           0.46928849612370    1.15015444996504    1.79219000915003
H           1.46789484337549    1.03419688089363    0.16022444513399
H           0.98070753496210    2.48679195196518    0.13814260741603
O          -1.98514730404900    1.37267793805437    0.29519648665045
H          -1.54264237675734    1.22304363269211    1.14198357702924
H          -1.04816475902009    2.23124579791014   -0.71549692812018
H          -1.86086436356174    0.54280358056237   -0.21536147054733
N          -0.41822771464210   -1.78943040067967    1.23308428047302
H          -0.19492702783351   -0.93901585325109    1.79285327281764
H          -0.88383711575477   -1.43440628411292    0.33134175348680
H           0.45324025717139   -2.28166735281841    0.87531979688071
H          -1.02446015054803   -2.42299679616471    1.74365430745240
