    26
        -50.44847539  Gyration_radius:  2.51419200947 Dipole_moment: 2.992
 S           1.67767505763627   -0.18710172161762   -0.66437834517135
O           1.55140095530779    0.79111707320425    0.38795224925716
O           2.85675310884754   -0.98258282731563   -0.63276908613953
O           0.42697320568063   -1.10690683775268   -0.62365037340944
O           1.53579300959791    0.51527599623344   -2.02267598697056
H           0.66416787313287    1.02205635428024   -2.04228016454738
H           0.74769381915600   -1.98607736996612   -0.16223876472766
O          -0.64675861319982    1.88790125871598   -1.97493995682335
H          -0.46007074453152    2.72889728124391   -2.39701376271283
O           1.46706392669178   -2.95529653190931    0.67604127953196
H           2.35219566852458   -2.72870411656477    0.36088761462901
O          -1.87663629816442   -0.23841546628773    0.75700077001228
H          -1.12923538973679   -0.69220275298324    0.34311937778519
O          -0.73214284695177    2.16538470579472    0.56178038857434
H           0.18405963881182    1.86182295475237    0.69183397074143
H          -0.72546486358823    2.07718525023335   -0.97411735135502
H          -1.27977521252929    1.38371680680933    0.81013233299340
O          -3.07872493025516    0.48026789609326   -1.60836468871417
H          -2.52261397931832   -0.13615776503318    0.03569155138322
H          -3.73314917753145    1.18037801611699   -1.63248023841416
H          -2.24985678038554    0.85864394277212   -1.93822558441121
N           0.97640279121710   -1.11499476536723    2.51513509261992
H           1.33236511629695   -2.44770985284906    1.52709439410695
H           1.38894775109829   -1.03136389996096    3.43570102171486
H           1.30015721152043   -0.33063654847700    1.95285945947117
H          -0.02722028735246   -1.01449707003667    2.61790480058565
