    26
        -50.44847507  Gyration_radius:  2.51421617735 Dipole_moment: 2.973
 S           0.66472211932496    1.67793492107238    0.16207653262939
O           1.38200321626743    0.83611300782684   -0.76368596582952
O           0.49832534913673    3.03415189099565   -0.23431510022800
O          -0.72567081621132    1.03677612696014    0.42264095460435
O           1.33745305754368    1.59635765924524    1.54012563724450
H           1.38421392057237    0.63076024858992    1.82753339123970
H          -1.39723648757926    1.59383393155922   -0.14930031371871
O           1.53860649224123   -0.89538655206398    2.17116027897887
H           2.40319335699406   -1.01638289234972    2.56883340567596
O          -1.99953406426667    2.42996767514973   -1.19749095364780
H          -1.36659617464009    3.15696869569841   -1.12713036152589
O          -1.13534459983242   -1.68064647143843   -0.22311433668235
H          -1.15792270642679   -0.72790860455322   -0.05710222254860
O          -0.85606875384725   -2.38985980330349    2.41826385754108
H          -0.11251183346119   -1.77770562916812    2.52503496290748
H          -1.28173696917343   -2.07877358186417    0.65329928362538
H          -0.53764622975005   -3.26013631947395    2.66351541361904
O           1.53222636112807   -1.77585418244353   -0.22519443110925
H           1.58554687925228   -1.31801889872569    1.24208829365894
H           0.56867165504484   -1.94263245409593   -0.35360558545960
H           1.67387081775382   -0.89674174056813   -0.61963784463816
N          -0.75213249445785    0.67677324811317   -2.74128091643508
H           0.13782587193266    0.73358002805961   -2.25039117321071
H          -1.68566415762784    1.85600925253970   -1.95368762833486
H          -0.56661333994487    0.74738552773989   -3.73390927982703
H          -1.13198046009136   -0.24656508355189   -2.56472589858567
