    26
        -50.46862846  Gyration_radius:  2.4749634532 Dipole_moment: 4.030
 S          -1.66153582841985   -1.51078692846371    0.05374576474365
O          -0.40531724910088   -1.63754854734122    0.81234686545895
O          -2.19004776611136   -0.17743446653182    0.14731661604322
O          -1.52517414655230   -2.02888330137728   -1.29173681210769
O          -2.68970251627565   -2.47948918009801    0.77947321712490
H          -2.51525328465925   -3.30081765801985    0.33206648267707
H          -0.69049493862762   -0.86644655861989   -2.02694751939657
O          -1.31090645444675    2.22533989896975    0.89130971516186
H          -1.89095745581859    1.50089801988836    0.59057045166376
O          -0.09249965185980   -0.19182278051900   -2.43311248675827
H          -0.40326019286335   -0.06879536162969   -3.33171686394264
O           2.54427197786014    0.85988436025451    0.48431091192894
H           3.49754381440687    0.88829284554687    0.56709661145244
O           0.50716324624575    2.13906541866068   -1.05494252107960
H           1.31810545330230    1.87891553425336   -0.59758721069214
H           0.24009364125226    1.36462319018334   -1.57931393617451
H          -0.73341946154775    2.41440986334225    0.11508309746004
O           1.76789667893540   -1.30349566823034   -0.72597766631648
H           1.34104325064267   -0.99235365613126   -1.53876568281740
H           2.32600362895550    0.01020071548308   -0.00225639905924
H           1.02627144041699   -1.59544280948161   -0.15932840615920
N           0.32025753987385    0.57524115252468    2.02515780620391
H           0.34755756057542    0.53177777125032    3.03712029042354
H           1.25831465317456    0.76860879892839    1.62524530601319
H          -0.01442809122482   -0.34357710784702    1.61586958216439
H          -0.37152583813491    1.33963644500674    1.66497278598512
