    26
        -50.45966286  Gyration_radius:  2.59342673681 Dipole_moment: 3.968
 S          -1.62568479326782   -1.50753081787486   -0.99724209492146
O          -0.28001988419247   -2.07023192400650   -1.09985547924069
O          -1.88690992082496   -1.02683782591354    0.33976445778226
O          -1.89798216198748   -0.54430626390831   -2.04708349161871
O          -2.62990156094094   -2.71530171749867   -1.24940638287841
H          -2.54532212359571   -2.85506629550670   -2.18741729160557
H          -0.96812009185456    0.75353470581018   -1.90247844716120
O           3.31258080617885   -0.29547216172533    0.23363711503169
H           4.04121175287455    0.00356129272149    0.77918875718460
O          -0.46797970626028    1.59626008600819   -1.75101986452965
H          -0.51006558593616    2.07824437433015   -2.57844219858043
O           0.12036525132016    1.01748147134143    2.09325617131325
H          -0.14719421590259    1.08027758359697    3.01066592899701
O           1.73388375982707    1.78714553402828   -0.09677973187389
H           2.81970118246323    0.52026516815824   -0.03852891033984
H           1.04046705814172    1.71386505658542   -0.77506183682776
H           1.26556025010046    1.74316714748739    0.74809949395921
O          -1.91431699290296    1.59666594573804    0.61525508141397
H          -1.52062618578230    1.85876936468289   -0.23209848408515
H          -2.13008343378687    0.64641326525194    0.50601711831163
H          -0.68781323587389    1.29567820709637    1.55844981463237
N           0.97933328346143   -1.34263715984980    1.03184113243472
H           1.95692105561389   -1.07716351950620    0.75385696695794
H           0.97661321428929   -2.10960212056569    1.69532069022884
H           0.51537805646130   -0.50040565566249    1.44425900669838
H           0.45000421237346   -1.64677375081081    0.14580246870368
