    26
        -50.44922924  Gyration_radius:  2.46946466696 Dipole_moment: 5.765
 S          -1.81494956126962   -1.25645042499519    0.31211101826804
O          -0.80010032249590   -1.41466273960029   -0.70569047589495
O          -2.41478282955287   -2.43666336802249    0.80719355734512
O          -1.19396123044474   -0.40526665571158    1.46336629033422
O          -2.89529455160191   -0.28697209067754   -0.20974196545241
H          -2.45803010689228    0.52741921604759   -0.59250347761932
H          -0.44319150940302   -0.93316193996671    1.93824844014045
O           0.79577749182711   -1.51842389183909    2.51470867525463
H           1.24596409848345   -0.85244333518855    3.03972082624050
O          -1.77279600701247    1.79480930943620   -1.28752189113042
H          -2.37133599427441    2.13373544804235   -1.95533274824188
O           2.07495924108203    1.27872911678503   -0.53374834102909
H           2.63043269952533    2.04443206693112   -0.68558969655878
O           0.16724180054105    0.47436725375473   -2.33345816152458
H          -0.13576247250680   -0.35192225327649   -1.91106385054902
H          -1.01027867138362    1.34886969023329   -1.78196534338553
H           0.96298434093639    0.73684883839267   -1.83229617981086
O          -0.04649416702977    2.04281467623417    0.88679821771469
H          -0.44561056840962    1.24625214926489    1.26981445683949
H           1.35057836733796    1.57725139860277    0.06901882609068
H          -0.67153262807294    2.32389316819734    0.20491008282212
N           1.94239653737592   -1.62648797812841    0.18464667034405
H           1.06941052211580   -1.77887623640043   -0.31643825769277
H           1.33849467816905   -1.63572991839132    1.66107501617303
H           2.60958894173574   -2.32234399427413   -0.12028981916305
H           2.28629191118013   -0.71001746535572   -0.08597187938010
