    26
        -50.45078039  Gyration_radius:  2.42197071089 Dipole_moment: 4.018
 S           1.77062831200903    0.61748107598162   -0.42897007338687
O           0.73435756581313    0.69121898132206   -1.43978529690355
O           2.25356465344433    1.86380979709981    0.05460233409601
O           1.16184345058668   -0.18601100747045    0.77349994996072
O           2.88574760965619   -0.28273362738451   -0.91163861071928
H           2.45014996844961   -1.04249910860713   -1.49065169880703
H           0.69936847777853    0.52199915059936    1.31952230201106
O           1.62139963157174   -1.98573608258481   -2.22376654190832
H           0.99385724943015   -1.42874144297370   -2.69563596824600
O          -1.50658289765976   -0.78585833236991   -0.82409956500584
H          -0.76107636641165   -0.22643489618829   -1.09319575619205
O           0.11017998997028    1.91053462071602    1.79913156211583
H           0.92597179069132    2.41489352766825    1.69628977999176
O           0.17948494368840   -2.73347833207072   -0.18595713333056
H           0.62128590347492   -2.23631427756832    0.50990249241120
H          -0.60086520990413   -2.18355166699801   -0.43890787455913
H           1.09967518602799   -2.44449599145939   -1.50169799829758
O          -1.16572660058663    2.35631373842148   -0.48553125312523
H          -0.45930673793696    2.19743303034418    1.04321531145607
H          -0.45331231493342    1.95231299368573   -1.01196637250539
H          -1.96008444038223    1.85039630428518   -0.67917518410577
N          -2.15239242118343   -0.12271169843956    1.76704339868934
H          -3.10000256346442    0.20964775596599    1.89669430581488
H          -2.05554253751728   -0.98202931127807    2.29377982726930
H          -1.76745751740026   -0.50645269263509    0.08212024661325
H          -1.52516514522057    0.56100749192680    2.17517780663155
