    26
        -50.45078062  Gyration_radius:  2.42219642015 Dipole_moment: 4.027
 S           1.40887113919022   -0.66834496026388   -1.12557581128692
O           1.66454929263518   -0.48565046606121    0.28946114815736
O           1.40856390917238   -2.01341311414018   -1.58542737655048
O          -0.00127505592129   -0.04075334331542   -1.40733789861421
O           2.34092070114312    0.21278312810463   -1.92662468325770
H           2.49571050316199    1.09295142420209   -1.37560417517177
H          -0.63843439329157   -0.79520147459610   -1.21158468518626
O          -0.24648851212222    1.03361243113175    1.56201735749529
H           0.44933443706838    0.47241238627344    1.18511359878800
O          -1.22539716423957   -2.19549360749210   -0.76645232776965
H          -0.63243210600825   -2.73618864723640   -1.30170440685569
O           2.53742893087181    2.21070949716840   -0.44674099933569
H           2.62818299951952    1.79483749411141    0.41669219571485
O          -0.02114066235954    2.70342768791627   -0.48830771155725
H           1.60529762113292    2.57651816109552   -0.48405300244268
H          -0.29472033739705    2.06041322602934   -1.15031808761612
H          -0.19596656131317    2.26770225171550    0.38057109266662
O          -0.02137436255265   -2.14001211904669    1.59857851272328
H          -0.89570331806403   -2.30311192671441    0.15967943974922
H           0.77072894913562   -1.70674774728263    1.23423691693569
H          -0.35979670184740   -1.54952673412233    2.27770583878654
N          -2.67071916336791   -0.02249528831425    0.80000911697350
H          -2.58535482531124   -0.80786936694737    0.16493279786500
H          -1.10908225075186    0.62100944619322    1.33194104127903
H          -3.14108754996854    0.72448383449596    0.30398240177330
H          -3.27061549850206   -0.30605215285492    1.56480970673935
