    26
        -50.45812147  Gyration_radius:  2.42439302266 Dipole_moment: 3.421
 S          -0.88272878824676   -1.53547804489535    0.33715267337633
O          -0.72830575632876   -0.94308760492123   -1.08140255084504
O          -0.52420830100278   -2.91191818883599    0.25990207191365
O           0.13022085889379   -0.74844202311400    1.19160928431579
O          -2.18184647890571   -1.21099527164585    0.86229945481439
H          -2.34900846987350    0.35859360919867    1.21313684646869
H           1.06920670223155   -0.68050331351311    0.69356668609926
O           2.21783305669229   -0.45940485177125   -0.10242238378374
H           1.99956161445732    0.39616318582770   -0.50938591198593
O           1.20433318060576    2.11481078018661   -0.42279836009212
H           1.73797100326246    2.90518193850789   -0.51412436395311
O          -2.41528121776279    1.34389717685476    1.30170079990924
H          -3.31288972688774    1.52347392207481    1.58624628597260
O           0.19501458158000    1.89953782580890    2.00837435941401
H          -0.76883024246595    1.92287720129311    1.89017660668156
H           0.39191457172891    0.96670752865638    2.16171962835906
H           0.90474264194366    2.08787278950773    0.52538120884362
O          -1.33573099584802    1.51185955324342   -1.17609399602861
H          -1.80934484205283    1.64143183992633   -0.33181028001493
H          -0.43451028628973    1.86561883261783   -1.04903812373511
H          -1.03952779073547    0.03004803252956   -1.15725959182007
N           1.59604383683488   -2.50702609981065   -1.62144634374386
H           2.09417528609310   -1.18967193375617   -0.78478076680522
H           0.87130953291036   -2.84411721692995   -0.98692510910919
H           1.13503672574446   -2.26644716699883   -2.49003363445966
H           2.23484932333627   -3.27098252011849   -1.80374451990931
