    26
        -50.46862837  Gyration_radius:  2.4747162812 Dipole_moment: 4.040
 S          -0.38952017649992    0.15544990121535    2.20651074340640
O          -0.46652547376321   -1.10065319129378    1.44112701768920
O           0.77767861741593    0.91171242399452    1.84375177395359
O          -1.63914369155249    0.88571365257639    2.15798343267168
O          -0.21456564345599   -0.28669365602659    3.72192707187482
H          -1.12188904990379   -0.38638638854565    3.99029517513371
H          -1.60765591992936    1.51391055752496    0.67694290485762
O          -1.61955866305735    1.80605034732179   -0.26757643290828
H          -1.98591412646438    2.69208622964109   -0.26664400995977
O           2.57123172675175    0.91581927078014   -0.12626156047896
H           2.09945027522685    1.12950111247635    0.70053806684998
O          -0.04818370087877   -1.27595493567641   -2.41222400991147
H          -0.32973214844934   -1.80230874051294   -3.16048322498054
O           0.62098953724019    1.44584915883038   -1.86325394525167
H          -0.13908091853298    1.65017246455680   -1.29186584186592
H           2.00235098149419    1.29489653498424   -0.83646729954540
H           0.42811782712278    0.58495338729332   -2.25836301051397
O          -2.00335660502870   -0.88227957790641   -0.74818442698434
H          -2.13954953997931    0.07752572968795   -0.75028959955822
H          -0.85533124076406   -1.15610849378618   -1.82862360487470
H          -1.57528437224824   -1.06412498395340    0.11198802752318
N           1.54285592260755   -1.45137832598739   -0.21236747242110
H           2.09865974062219   -0.51152769202797   -0.19146133251780
H           0.77986303777998   -1.36045513798412    0.51786433055928
H           1.07818581641315   -1.53606762076767   -1.13655507870110
H           2.13590779783674   -2.24970201641757   -0.01830769404576
