    26
        -50.46862823  Gyration_radius:  2.4747550475 Dipole_moment: 4.049
 S          -1.17920435854637   -1.21386797111671   -1.47688909036991
O          -0.06092809565648   -0.32785609495683   -1.84311793423341
O          -0.85798015624259   -2.00069052554853   -0.31779337083954
O          -2.43067993291773   -0.48879281563022   -1.40447826726996
O          -1.33822471617583   -2.21543526627992   -2.69916881376411
H          -1.91735794166560   -1.72001341015383   -3.26868794912454
H          -2.29103217904186    0.29706428098263   -0.00745587439877
O           0.97428693756429   -1.97618581747846    1.61608708364353
H           0.22570733145762   -2.24157616432078    1.04952881329110
O          -2.14517881503663    0.84976896792354    0.79935000647006
H          -2.98716413764489    0.87836381724680    1.25710464179683
O           1.77200685169589    1.95081917431768    0.70663655142861
H           2.25019650135441    2.77925308944320    0.74354812702816
O           0.07364229328027    0.40483218704268    2.40404807563171
H           0.63174447467262   -1.20670761204477    2.12826999015390
H           0.70609122911722    1.02579679659330    2.01813494182663
H          -0.74796405788688    0.51463274421345    1.89529395656084
O          -0.32185770829413    2.13883239424996   -0.81867303432920
H          -1.07329314151883    1.98512579857042   -0.22577530458512
H           0.97644105725412    2.10745215609179    0.11583148438951
H          -0.25948150834738    1.31901415910097   -1.34802926849709
N           2.03184615968156   -0.57257467858325   -0.27608836768142
H           1.22804494105163   -0.53598937064243   -0.96620031763047
H           1.70651368242109   -1.22546791376489    0.53671147111490
H           2.87643034542155   -0.91080880874600   -0.72218509366124
H           2.15739493400839    0.38501090349564    0.10399752307019
