    26
        -50.44103439  Gyration_radius:  2.55173570344 Dipole_moment: 5.552
 S          -2.45578300273541   -0.21751256504120   -0.27539361720606
O          -2.23324830951812    1.20102226974839   -0.26191699138600
O          -3.56071889493848   -0.71563699101295   -1.00905147993287
O          -1.12933512902105   -0.89184348529627   -0.78086845133227
O          -2.51627346615867   -0.74776146775527    1.17532697010850
H          -1.86758626223412   -0.21561645350031    1.73434382359642
H          -0.71345201123853   -0.23077414975020   -1.41548745309999
O           2.33558722191961    0.20068774145473    0.09753977059892
H           3.00660879219020    0.53121703395494    0.69570945293742
O          -0.06280916972459    0.77912175654289   -2.38957918741944
H          -0.51522895846346    0.86362989056846   -3.23003718684926
O          -0.85123959385928    0.64743253981583    2.56210093519905
H          -1.37471072086230    1.27397498982702    3.06557264614029
O           2.26659761275004   -0.46972422745037   -2.50728699853373
H           2.45886977435439   -0.18801455327015   -1.59021314504129
H           2.10506363863794   -1.41439777956697   -2.46642337434616
H           0.83562417494439    0.40253008086933   -2.56507024869885
O           0.20026985117199    1.96334966388812    0.59911210117239
H          -0.61092344434674    1.87422135003016    0.06608528590971
H          -0.37812183127396    1.19223863517110    1.85939800819166
H           0.89316091801471    1.44527259749372    0.15865803857883
N           0.80815539823103   -1.56335815715102    1.36947148602561
H           0.40448115878188   -1.07604986117701    2.16230444425049
H           1.81783553681513   -0.49653440192421    0.59391438976951
H           1.06727101449817   -2.49286663625399    1.67477602967570
H           0.06990571206657   -1.65460783020946    0.67701476168862
