    26
        -50.45514006  Gyration_radius:  2.75195668839 Dipole_moment: 5.655
 S          -2.83041181933693   -0.63784729106781    0.07374466650606
O          -2.14226412261354   -1.90985033060679   -0.18057285380658
O          -2.25422113159805    0.09265387081316    1.17377904759970
O          -2.94274691175229    0.14073499854810   -1.15219140621266
O          -4.31119702052925   -1.02535924179131    0.49268147530667
H          -4.63531317114416   -1.46716124766534   -0.28643327190087
H          -1.55808297158589    0.65673539316953   -1.69957489713804
O           0.27773054121231    0.52038810901686    1.71932955297649
H          -0.70049743131529    0.43819790912275    1.72291680491998
O          -0.64930070358719    0.86374307387289   -2.05971035644932
H          -0.77200766791204    1.01310197396748   -2.99823545555815
O           2.90341217117599    0.06730959674014   -0.61998472854022
H           3.79762743841286    0.28093497648543   -0.88749569886118
O           2.78923936905478   -0.43066938532621    2.03834194469989
H           3.28794253457701    0.08228914964231    2.67588358568055
H           1.85816482199602   -0.15968703063418    2.14322317706624
H           2.94627591393741   -0.16209023819234    0.33287832333882
O           1.05291906939601    2.13443361885623   -0.25219015009405
H           0.48042855689467    1.31582016466501    1.17339855505213
H           1.77934151480125    1.53453490662720   -0.49351719020787
H           0.35758209197095    1.96464652595080   -0.90431748977936
N           0.27874445842688   -1.08554312987121   -0.41185818051446
H           0.17942100222363   -0.39988354900476   -1.18436750507415
H           1.06379112544116   -1.70721084873471   -0.57711392195507
H           0.41216880481804   -0.53788149389089    0.48417760359729
H          -0.66874645293141   -1.58234051062932   -0.32279162068044
