    26
        -50.44466314  Gyration_radius:  2.53405914052 Dipole_moment: 6.854
 S          -1.15488920170268    1.20101166440102   -1.72123561612456
O          -1.79119273611843    1.02545788265371   -0.44566281968611
O          -0.98701625999155    2.52688335109064   -2.19415399730154
O           0.26751288449110    0.51025910471193   -1.62385569557646
O          -1.82906594919533    0.31570777996208   -2.77090708875846
H          -2.13790953518982   -0.53196512672193   -2.30504934682375
H           0.84124250239556    1.04838405553852   -0.99889089844902
O          -0.22366904012530   -0.83714662387264    2.32036294821972
H          -0.97551629637561   -1.11698583725867    2.84405233400340
O          -2.42307195598760   -1.87786828578062   -1.60705277933363
H          -2.33250933072751   -2.59854066381208   -2.23462637188116
O           1.78229604693032    1.67727119054241    0.09326058219871
H           2.53598060582218    2.10855347351390   -0.31284367371305
O          -0.19697544193480   -1.82819171924218   -0.21871188976463
H          -0.26956481275577   -1.52907530670697    0.71091819179034
H          -1.65511269612900   -1.95175312288133   -0.97960008426138
H           0.09134243402640   -1.05115923909752   -0.72050554355053
O          -0.50801837733631    1.72290008000685    1.77770562402718
H          -1.13009981007866    1.58262005852570    1.03717378474547
H          -0.33898707035745    0.14179868642807    2.18477896377361
H           0.30983369771696    2.02561602392226    1.36598951654618
N           2.48633700603505   -0.59998467852307    1.19712723841839
H           2.11715800240569    0.83097686188842    0.54409819281161
H           2.50436358659855   -1.33377367139345    0.49888349816504
H           3.32685879779658   -0.67391006701283    1.75589100733701
H           1.69067296979589   -0.78708586088585    1.80285394318181
