    26
        -50.44466316  Gyration_radius:  2.53404846653 Dipole_moment: 6.853
 S          -2.09818817709513    0.10600944804792    1.15045058346177
O          -2.01153277639013   -0.63635995432154   -0.07595435362113
O          -2.55510038908912   -0.58142321116238    2.30303286726748
O          -0.65177035364389    0.68349549694770    1.44086824547657
O          -2.88111608317488    1.40097068575422    0.92664408800554
H          -2.68593351922870    1.71865005873909   -0.01786320887206
H          -0.04343376375909   -0.08177606577589    1.67216662588820
O           1.09646796389143   -0.88162607424163   -2.03813889177543
H           0.77791511638730   -1.06885210065038   -2.92205533691304
O          -2.22137973727646    2.26629653963814   -1.38310533540590
H          -2.21678954077674    3.22601049576881   -1.36736651775632
O           1.05879285987258   -1.18786305806924    1.86228809081356
H           1.38737292051134   -1.19103366716361    2.76282903772514
O           0.26790303257939    1.51316062507044   -1.03380088635086
H          -1.26942090036983    1.97969946572356   -1.40727096683638
H           0.05979799832121    1.27118305898318   -0.11902305389562
H           0.53665193369621    0.67962094943865   -1.47185895341768
O          -0.13270720670708   -2.49750847314997   -0.36248454483491
H           0.28501907594798   -2.39454275166891    0.50058607716838
H          -0.94974865034240   -1.96333340504904   -0.31626025725626
H           0.65305966539159   -1.54642233552505   -1.44535288000806
N           2.81279361879884   -0.11587568832412    0.22681185693331
H           3.79513773966794   -0.35243268411292    0.28342962341777
H           1.79064042838465   -0.80974414654329    1.26816839341348
H           2.72859011285579    0.89361137171452    0.24020240733834
H           2.46697861154652   -0.42991457008940   -0.67694272997079
