    26
        -50.44253053  Gyration_radius:  2.54264775245 Dipole_moment: 6.371
 S          -2.29710859796137   -0.87749414584113    0.98529195022483
O          -2.02057329663316   -2.26764692676078    1.17477402264030
O          -3.22259430035158   -0.23079385763989    1.84149263925120
O          -0.93481747832636   -0.09658764699974    1.06814523837035
O          -2.68182256102475   -0.67773902007619   -0.51188171275820
H          -2.38950681477629    0.21865436421250   -0.83068756262441
H          -0.33932012728985   -0.67472488216255    0.50025488735064
O           0.20836819101800   -1.92592227684669   -0.29517785678199
H          -0.45986740319037   -2.48796137647137    0.12906450809885
O          -1.62234700039225    1.49276507067990   -1.49384680340520
H          -2.07208299092185    1.74052917573785   -2.30370137930161
O           2.13945492787443    1.32622295947250   -0.13262396112758
H           2.75671586622544    2.01036134272929   -0.39607812528412
O           0.55350645184043    0.18259340855482   -2.04474187808688
H           0.39662283814303   -0.71226944503554   -1.70993504666202
H          -0.78317522764953    1.01266809675021   -1.77113881207017
H           1.23024899764261    0.55914986280879   -1.44811635539312
O          -0.11054091324535    2.49813212239200    0.66326779619688
H          -0.45420304600570    1.80580762959704    1.24177775699167
H           1.34873890032887    1.79802667983314    0.23344554470642
H          -0.68881527587642    2.46573414683429   -0.11263302128145
N           2.40082013785671   -1.43261795812158    1.11676046346951
H           3.29905068460042   -1.87993476825747    0.98603338387340
H           1.05730468079121   -1.97896371521947    0.22278901417917
H           2.21220597466863   -1.39161440526906    2.11047076725395
H           2.47373738263202   -0.47637443490093    0.77699454215253
