    26
        -50.46709003  Gyration_radius:  2.46697756188 Dipole_moment: 4.128
 S           0.52134032221000   -1.93062964519756   -1.29992364669461
O           0.33992796903202   -2.00657262254741    0.15832087177297
O           1.34646408073897   -2.96283776606441   -1.83414619484570
O          -0.94390091851811   -2.15918401923459   -1.91102754008652
O           0.86875129335595   -0.56745340888372   -1.68001305025208
H          -0.54180018480229    0.21962045279539   -1.68492934433961
H          -0.90026861643897   -3.08681418166091   -2.11345268071311
O          -1.41053036557825    0.68461755221180   -1.60376456130588
H          -1.90051425306896    0.46135202591123   -2.39608214595949
O           2.12467905720895    1.45459076124899   -0.40513680724466
H           1.85504965085248    0.81087947363459   -1.08460612786060
O          -0.84011702355805    1.05419982169399    2.31302565966746
H          -1.36946594489373    1.16979474541361    3.10212616892177
O          -0.23508613914432    2.62296281031873    0.02138814052141
H          -0.76174110642479    2.13049715910393   -0.62599649248612
H          -0.49167637532959    2.27438114570011    0.88714274084436
H           1.36119270027178    2.07581212645240   -0.32681101617411
O          -1.90797360545190   -0.66693039354982    0.70050649791832
H          -1.97138272134290   -0.16839653908774   -0.13577392032794
H          -1.18140663845816   -1.30240327365380    0.54645721046506
H          -1.33328124625890    0.39663210993216    1.73292986042709
N           1.49067668620204   -0.10638619970507    1.55703123374502
H           2.20950883279768   -0.40718576587140    2.20491395505016
H           1.87771825774253    0.57624130509944    0.80281508415737
H           1.08906082057732   -0.93284757165880    1.02825822195550
H           0.70477547888387    0.36605989724168    2.04674789305413
