    26
        -50.46709004  Gyration_radius:  2.46697791201 Dipole_moment: 4.127
 S          -1.44167415449686   -1.07518283397947   -1.56657534079852
O          -1.73172626481899   -1.07354084127171   -0.12399372937396
O          -2.02143305915872   -2.17009494389666   -2.27136902725104
O          -2.14511919324032    0.25116662039663   -2.13103615602284
O          -0.01724347217039   -0.85415546787863   -1.78007018610613
H           0.17075949316167    0.74144135097381   -1.61295450621251
H          -2.95997888485616   -0.11453840469566   -2.45614966201495
O           2.18617273922473   -1.38468868692905   -0.31233352696587
H           1.56250318841129   -1.31017029358751   -1.05680124997159
O           0.25986238920193    1.70882908799190   -1.42929900810037
H          -0.04899147247746    2.15353523604528   -2.21960499949137
O           0.40994304837956    0.94861906998896    2.46958863573843
H           0.23307958561549    1.40567204926166    3.29182822529290
O           2.31957998845436    1.18848533159008    0.37807373955970
H           2.45914766630478   -0.45631301245897   -0.11597408520310
H           1.73399337554782    1.55346811482098   -0.30228511623759
H           1.81192982580136    1.21437144670211    1.20178060843976
O          -1.41062800455645    1.44893501256997    0.69811807731762
H          -0.88978441802284    1.77169522303382   -0.06112762083368
H          -1.70271441346196    0.55649241507074    0.42666456296520
H          -0.32167839758650    1.21505269900413    1.83249467776750
N           0.30687757973242   -1.56371823175159    1.45546923485896
H           1.15972628968692   -1.59654655886635    0.78007932210315
H          -0.55049162785676   -1.44949946450666    0.84239381641939
H           0.23619207765635   -2.40063047810361    2.02249923417115
H           0.39169610614800   -0.70868442925580    2.04058409049978
