    26
        -50.45048648  Gyration_radius:  2.70118124659 Dipole_moment: 6.747
 S          -0.13919488386799   -2.75025029709119   -1.19349170264415
O          -0.26972883901647   -2.76450377305847    0.26622528488517
O          -0.61988283243330   -3.91123287131422   -1.86747597998733
O          -1.16296582553326   -1.55763308344532   -1.64835767728050
O           1.17400822326230   -2.27030209255852   -1.59082109474584
H           1.67505173232769   -0.84317579964770   -1.28188781123122
H          -1.64572334412843   -2.02534979179036   -2.32189495889393
O           2.02563964087403    0.03414245735737   -0.94122373202902
H           2.95745092146661    0.04426143384339   -1.16407370089822
O           0.37363468525470    2.24825944967228   -1.07473335355909
H           0.98647904783082    1.51468287307261   -1.23771038410762
O          -1.46158682917493    0.83291486434632    1.83714118428439
H          -2.20501895041598    0.42307527430228    2.28040076070925
O          -1.91600346089938    0.95115560684431   -0.68285967890023
H          -1.72286021372466    0.90672690696922    0.85992737269842
H          -1.15986350360706    1.51943448010616   -0.96760816487933
H          -1.73382036768635    0.07578705513991   -1.05552010600310
O           0.56146884839932    2.71115664833961    1.66445682134574
H           0.34411485916360    3.61406787439052    1.90010578931053
H          -0.21929044373121    2.17356134811932    1.87187862072606
H           0.55572423847127    2.53282280357724   -0.16281767080070
N           0.73414639081942   -0.67734114692825    1.32135130186296
H           1.31248005557557   -0.89034657531366    2.12675499671737
H           1.30224965607727   -0.22671167155409    0.57343550022740
H           0.32144255224146   -1.59822883802366    0.89269933708680
H          -0.06795135750554   -0.06697312518588    1.59609900604400
