    23
        -45.37484932  Gyration_radius:  2.27221825413 Dipole_moment: 5.307
 S          -1.30224177670875    0.25135709176271   -0.42045893230724
O          -0.23673853404550    0.91417559658179   -1.17171289640044
O          -0.74020973629101   -0.55490047886464    0.66339621033441
O          -2.08164469639289   -0.67591085644888   -1.37893879551307
O          -2.25925717122421    1.21483170402823    0.12161620674360
H          -1.60167820679100    1.56662120115981    1.37564414619581
H          -1.47237000484510   -1.43105245996310   -1.63594887485095
O           1.62811177055803   -0.84921277925961   -1.85699548665943
H           1.01453890291717   -0.09045671830180   -1.77562770170492
H           1.99347851529553   -0.95379703327659   -0.96381150327517
O          -0.39327051829544   -2.48563001980290   -2.12900097898582
H          -0.52299138046228   -2.64094758995022   -3.06691582634459
H           0.45376126600423   -1.96434135973310   -2.05016504466062
O           1.81954550227004   -0.90070095313634    0.91211341071520
H           0.83330975665269   -0.83898168287495    0.81518678171596
H           1.99118769933929   -1.73721158933135    1.34628546494131
O           1.25776334254025    1.81520739612599    0.79948418206557
H           1.77383561750892    1.00784105664451    0.95059072757088
H           0.78030477579463    1.63975485866394   -0.04570868412367
N          -0.91172572321263    1.67691320762261    2.22360943896090
H          -1.16219296886811    2.44311209936789    2.84035616950827
H           0.05153587094550    1.81296049155989    1.74274957622690
H          -0.91305230277817    0.78036883752628    2.70425238976874
