    23
        -45.36753031  Gyration_radius:  2.36485451326 Dipole_moment: 6.779
 S          -0.89199247348128   -0.52810164735566   -0.54761232272257
O          -0.36733495309117   -0.57178643476656    0.82101686317504
O          -1.07849936200145   -1.87319864401477   -1.09269342402388
O           0.02075136625983    0.23354022966191   -1.40943174504512
O          -2.25468096507561    0.18408544982731   -0.52627290022198
H          -2.38384067530163    0.60436657149105    0.39468070677911
H           1.18832355027760   -0.92575779092256   -2.01752660906836
O           1.26827621775146    1.77328481934967    0.35113567307100
H           0.83549603669175    1.28845029971629   -0.38234537530752
H           1.37301449294681    1.12151678566106    1.04903701063932
O          -0.79256373711775    3.29550127063380    1.13005757892480
H           0.04415833532690    2.84267369074949    0.87462052388541
H          -1.11292911717409    3.72972495605769    0.33805360265551
O           1.82793061297218   -1.99116738693373    0.69523820307457
H           1.70277460952509   -2.75399931379061    1.26271022165772
H           1.01925065287237   -1.43169125919240    0.81919036998089
O          -2.21176795050145    1.14453907457591    1.81769699664035
H          -1.77935531628155    2.02209225317353    1.68624204159248
H          -1.49067259585233    0.51862195926803    1.97827988988762
N           1.30415044864483   -1.95468812455730   -1.89384644838028
H           1.78273979924833   -2.10481947188536   -0.97042822360525
H           1.73675681576401   -2.42897392671130   -2.67870982355695
H           0.26001423764459   -2.19421335993974   -1.69909279995319
