    23
        -45.36976459  Gyration_radius:  2.34207860089 Dipole_moment: 7.786
 S          -0.43642116957448   -0.43681873059803    1.72664604258155
O          -0.22266626940287   -1.34975813107934    0.57709416716133
O          -0.63186870346261   -1.12274706258997    2.95512542347214
O          -1.74014967048486    0.38314679438132    1.33552596968249
O           0.59977926025223    0.59804986871052    1.73176345244405
H           0.29793740178512    1.39125367436594    0.49381950982775
H          -2.42337091355038   -0.30345334834025    1.20571827175253
O          -1.06055186312908   -0.30334479591342   -1.63727346204620
H          -0.77554148527635   -0.78421433669253   -0.81661296988345
H          -0.47823986865857   -0.60904600007776   -2.33633042440047
O          -2.87893355867917   -1.87606855209066    0.56207256521494
H          -3.01050019515126   -1.75501131910179   -0.38298919284486
H          -1.94991207204876   -2.12846818530818    0.67814262667664
O           2.34979934480682   -0.78700404646955    0.11163266470596
H           1.45802541732239   -1.18164670399912    0.17597205634487
H           2.42219038338564   -0.28732524770337    0.93265228696036
O           2.41018264705982    1.16363511662890   -1.67337333519371
H           3.29197752305172    1.53749805495082   -1.65735915609439
H           2.44484209965783    0.35331347205469   -1.10083482093885
N           0.11703685017716    1.81199689329339   -0.48553757646074
H          -0.52316359749724    1.14475566716691   -0.98310544736750
H           1.02960748580844    1.80388648539135   -1.00085032535418
H          -0.29005904629741    2.73737044290659   -0.41189832624427
