    23
        -45.36976457  Gyration_radius:  2.34184501793 Dipole_moment: 7.788
 S          -1.07145598001991   -1.32299659046714    0.68356877014158
O          -0.21809691974841   -1.37091315447186   -0.52893247577313
O          -1.66847818806411   -2.57357107535308    0.99574352918389
O          -2.18740994963009   -0.24769936723080    0.33213341276175
O          -0.33946895010104   -0.67570266327559    1.77439859371171
H          -0.19584551447284    0.73978361283446    1.29686037064258
H          -2.61288036640415   -0.60029852457516   -0.47392953754544
O          -0.15885715270102    0.91550121132018   -1.74124073052102
H          -0.18676295432166   -0.00059696423413   -1.35931021296934
H           0.71542737091158    1.01367267321541   -2.12497584081351
O          -2.45839816775375   -1.36593707910155   -2.05000725359805
H          -2.17634644494110   -0.67672803320943   -2.65876877476242
H          -1.64893582572778   -1.77560064328152   -1.70776404851056
O           2.15581027532525   -1.03736546769785    0.65592362373796
H           1.40948183025950   -1.24976409314996    0.06172411866139
H           1.77245008969351   -1.15719578243200    1.53206419010396
O           2.65944897710258    1.55896126323131    0.67439265207234
H           3.36541829994910    1.70795760350036    1.30450080260545
H           2.57722628642137    0.57394884729774    0.58184694816715
N           0.00394789626134    1.68974028400858    0.82077969798485
H           1.03617757782512    1.85889593396731    0.88491065549966
H          -0.54730819148980    2.42839118474218    1.24267874088359
H          -0.22514401837886    1.56751682437359   -0.19659723166276
