    23
        -45.37915366  Gyration_radius:  2.25696127399 Dipole_moment: 3.630
 S           0.93758873094703    1.31973533611860    0.13737913616076
O           0.79801879954063    1.85765930894621   -1.20723731262177
O           1.31728870152246   -0.07980460799150    0.13844140581026
O          -0.23373749931516    1.58412472319026    0.95480094304287
O           2.14569775805307    2.09515400310095    0.80887814894820
H           1.96412391535009    3.00471537187199    0.59394716784476
H          -1.69906800749242    0.74051858091978    0.44351108146033
O          -0.54030211731519   -1.80321996070092    1.05790203557059
H          -0.57394003194781   -1.64075804714202    2.01035550872783
H           0.19660572156853   -1.22942164805204    0.76831800030439
O           0.28860564763022   -0.05292355309430    3.04468170707021
H           1.24594699476078   -0.02922102197696    3.08186637274749
H           0.03201434810214    0.61659670676316    2.38626761667776
O           0.73345496919603   -2.00665796765528   -1.66505346149285
H           1.24543532913722   -1.39841077338535   -1.10092369696616
H           0.27616387270061   -2.58783392378261   -1.04764383456108
O          -2.19213510441773    0.01622549468085    0.01194838706082
H          -1.54311399797237    0.03459457880186   -1.38845940243889
H          -1.81638076623523   -0.79459873473375    0.42615334859155
N          -0.83877731081536    0.07637666836620   -2.20513709293011
H          -1.28934512914188    0.23332400294162   -3.10004970368815
H          -0.28073031325544   -0.81724740896949   -2.19149900497775
H          -0.17341451055734    0.86107288180355   -1.95844737033131
