    23
        -45.36199881  Gyration_radius:  2.31268436836 Dipole_moment: 2.325
 S           0.44399966709624    1.36192350713964   -0.04674838584823
O          -0.69856919612465    1.64391250900576    0.75585495761508
O           0.16603946724373    0.99138947147139   -1.42158996164761
O           1.29439529443247    0.25152786947262    0.56504395229242
O           1.38396689141116    2.58863151904216   -0.02410701970857
H           2.10828330238393    2.37534684511174   -0.65774990321326
H           1.12512216123912   -0.66571077724962    0.00550119363389
O           2.79227570280534    1.35186429694672   -1.85285661483569
H           3.21278480554851    0.55254034543334   -1.52491668165307
H           1.88641384820465    1.11428160771273   -2.10899344745510
O           0.77233387408615   -1.70821106970564   -0.83392920037606
H           0.48223773777688   -1.25524064408061   -1.63367902724877
H          -0.09529338107204   -2.05282955610625   -0.39573496702866
O          -2.37565496143163    0.07545015438689   -0.93614262226947
H          -2.56510067451826    0.67007378045285   -0.20486981979347
H          -1.56495999319641    0.42657960633040   -1.33256629060315
O          -1.46907294120355   -2.20729006150480    0.24246287224386
H          -1.34980370547008   -1.81860848643822    1.14308698919740
H          -1.99646957631034   -1.54474585077693   -0.24507405671653
N          -0.97438392600198   -0.73703310991329    2.45453141491030
H          -1.58952183116533   -0.66780847902016    3.25581790382912
H          -0.95000000098449    0.17255808202129    1.99924899311082
H          -0.03902255477796   -0.91860155971424    2.79740971154741
