    23
        -45.36600058  Gyration_radius:  2.25639439827 Dipole_moment: 4.446
 S          -0.72659484645164    0.90641821169602    0.96428959976941
O          -1.92833374951183    0.25080762383325    0.52038137617562
O           0.17637741156534    1.21997505725303   -0.15254327900508
O           0.01127220720270    0.10677003019391    1.95953307584363
O          -1.11981819667313    2.24714043257113    1.64239233042474
H          -0.25249489544118    2.60306986224047    1.92897165143163
H           0.39013696176890   -1.22670702267316    1.47457737097654
O           1.94736379794983   -0.60437707922808   -0.77895987495224
H           1.36236692258328    0.16404926034812   -0.56245049080280
H           1.78460509681511   -0.81178745545837   -1.70173192762058
O           0.65563281333788   -2.04482417152258    0.88259682127992
H          -0.23559856105266   -2.20784000445701    0.27965241732643
H           1.32893968206162   -1.63318453109459    0.23852686641259
O           1.47925325724843    2.39152234361772    1.99063354603172
H           1.36081283456628    1.50198664646663    2.35262474346411
H           1.55833040417171    2.27037785439598    1.03667598802385
O          -1.38355048943018   -2.08446064363211   -0.52496045306618
H          -1.82722932058188   -1.33469828105031   -0.06370995224484
H          -1.12409902208021   -1.67821010843529   -1.38626865499933
N          -0.82297802517696   -0.27936931540078   -2.44088175071923
H          -0.26971706947237   -0.06423073612704   -3.26271764083371
H          -0.57609828720757    0.39444176590082   -1.71427303687394
H          -1.78857892619624   -0.08686974943546   -2.68235872605356
