    23
        -45.37543825  Gyration_radius:  2.2638611191 Dipole_moment: 5.718
 S           0.10955641375922   -0.16502876355856    1.45650353856172
O           1.12998244588472   -0.71768405730645    2.30549301425521
O          -0.07859703001510   -0.95903992540115    0.22813703151980
O           0.58125476846929    1.26203530808598    0.96182252105664
O          -1.16671726913119    0.12403427549935    2.08932095437074
H          -1.87651426475123    0.76904677401781    0.94624438086136
H           1.38045130076312    1.15630641954153    0.38809497727890
O          -0.23875917836191    0.81314796906833   -1.72453142073620
H           0.62253157689035    1.23256573890120   -1.79955415679840
H          -0.09242301056671    0.05133765262745   -1.12183302124743
O          -2.48812590573362   -1.49575395823577   -0.77363578845669
H          -2.29908768168765   -1.71762816252124   -1.68775445835292
H          -1.61977998950816   -1.49475694187750   -0.31356631141124
O           2.64828608367091   -1.59722913343200    0.34782429844134
H           2.22177388538886   -1.35026794646931    1.19982390580862
H           1.96984147101960   -2.09834127178614   -0.11338128996578
O           2.60185035160909    0.82166973170606   -0.64758735487613
H           2.70743690544159   -0.13249801896520   -0.37667592665831
H           3.41230469889542    1.25954981585754   -0.38081278122700
N          -2.30560281479952    1.03978946233367   -0.01373568351538
H          -1.52269275728046    1.29095812925281   -0.65848843591424
H          -3.00197640274135    1.77256042889010    0.06568344965047
H          -2.69499360716525    0.13522647383140   -0.37739143266189
