    23
        -45.37862777  Gyration_radius:  2.28706202998 Dipole_moment: 3.428
 S          -0.11550020241981   -0.88462146656992    1.60473918715371
O          -1.18611001430731   -1.74409666092582    1.15706041029748
O          -0.50716253002434    0.52550315368053    1.64342868341883
O           1.14281777600122   -1.06862465423763    0.90604908767190
O           0.17641519010936   -1.29063310394277    3.11255353530973
H          -0.69023683770452   -1.48755835095469    3.45336661897205
H           1.08740186629555   -1.16583720980577   -0.88934191751426
O           0.88126196573226   -0.97262304181106   -1.81917794323718
H           0.97008513027050    0.72752401761029   -2.00279116462407
H          -0.05859151350782   -1.19216667669100   -1.91599124938985
O           0.85127078094298    1.67776928836012   -1.75698110573266
H           1.42639206685922    1.66939476060811   -0.41714754095267
H          -0.10923574319697    1.74110588461974   -1.53327325821005
O          -1.57661062337874    1.32892645310582   -0.74508345262583
H          -1.34817070067698    1.12222574281687    0.17707573253525
H          -1.84873604382383    0.48317613219797   -1.13277941554231
O          -1.82364962358316   -1.37097662076291   -1.35750331993850
H          -1.62231346845322   -1.56227453527581   -0.41090163071737
H          -2.49007662445037   -2.00537032496340   -1.62547731159086
N           1.69349438107118    1.46300348398973    0.64393345589173
H           2.37844445024344    2.10183744810066    1.03074226563240
H           1.97666228415521    0.46712750497295    0.69996809167174
H           0.79214802376605    1.43718878581333    1.17753224140508
