    23
        -45.37195988  Gyration_radius:  2.26509117751 Dipole_moment: 3.927
 S           0.06429929414744   -0.24428188703942    1.76205149492265
O          -1.01752360364590    0.70284777430517    1.93286569250584
O           1.26431843099086    0.33859679111436    1.18476961774677
O          -0.35515871934290   -1.43682555262802    1.03563296620956
O           0.47295024052981   -0.71315270193461    3.21908101914606
H          -0.36220328416241   -0.72652745445344    3.67582167836260
H          -1.47040192215157   -0.69485240283485    0.00690007238658
O          -0.03813833174702    2.75314640902968    0.54520804558631
H           0.88796208263649    2.66292134131676    0.78488940263853
H          -0.50097284963995    2.09983945849021    1.10800609504627
O          -0.30693258831023    1.51854830492663   -1.78367803489570
H          -0.23863318445723    2.16275959309586   -1.03622115878893
H           0.86878687300361    0.72679371259631   -1.62319524788341
O           1.65303299217413    0.06655034923286   -1.30624884765321
H           1.63323074562483    0.16885313730472   -0.29581061945823
H           1.26750477088973   -0.92680934677534   -1.47333861336542
O          -2.02007421893900   -0.12868798392201   -0.57032627902074
H          -1.03584477144872    0.91251360909920   -1.51474915222287
H          -2.47795357617182    0.45599990444785    0.04016872396375
N           0.57826536918045   -2.21393241949984   -1.47418234786098
H           1.12887266714920   -3.05308343708733   -1.59691699898955
H          -0.21276851590967   -2.24363990263653   -2.10506757779221
H           0.21738211960683   -2.18757727610328   -0.51565992055726
