    23
        -45.37543830  Gyration_radius:  2.26398477739 Dipole_moment: 5.717
 S           0.15984169359994    0.16345915637539    1.45188089727881
O           0.79786835270819    0.55287438567428    0.18064681101991
O           1.11160060348131   -0.35456678039563    2.39698143884812
O          -0.85516065640205   -0.98948348663896    1.07244173631440
O          -0.71968160710078    1.21491144357980    1.93560524887670
H          -1.59516589862795    1.38493214296099    0.74016660382450
H          -0.36509164502588   -1.70533179411334    0.59673358431291
O          -0.78763189779968   -0.39501129621318   -1.70839173274344
H          -0.74339568436098   -1.35382054872283   -1.66296849540138
H          -0.06339870335280   -0.08478004153150   -1.12168536019947
O           0.53962178278122   -2.73645937603132   -0.29529226374159
H           0.53735858896790   -3.61761836471727    0.08326628432541
H           1.42084442578383   -2.33854617726920   -0.05005911992015
O           2.66020438407999   -1.49735593196719    0.60594970426629
H           2.21794859543609   -1.13919696848963    1.40903477435704
H           2.78536521505085   -0.72494800271442    0.04748415452972
O           0.14564250958276    2.78039817734793   -1.12698729562577
H           0.54770765200247    2.08182628883218   -0.56471797323969
H           0.45337167085379    2.60689311450079   -2.01908172915526
N          -2.01408920279051    1.51034992675289   -0.25392628356577
H          -1.39549763592508    2.23391610352510   -0.69662212535780
H          -2.99166609885682    1.77875550125442   -0.23144188220670
H          -1.84659645411739    0.62880253800143   -0.78901696681173
