    23
        -45.37138177  Gyration_radius:  2.35992758981 Dipole_moment: 4.634
 S           0.42996442897146    0.84723364154533   -0.45331519578160
O           1.67959827955622    1.20953141068018   -1.06530661859762
O           0.55137237557081   -0.41379325358840    0.33478771194568
O          -0.61113706989167    0.48237465050185   -1.58613255400971
O          -0.21492377292572    1.86704057407258    0.33428536877357
H          -1.44484385529972    1.80572383433741    1.56413136887421
H          -0.13739193283211   -0.12055010091232   -2.22902967523692
O           0.72597070844239   -1.10424931933072   -3.13018718795988
H           1.48947030272016   -1.30299738850042   -2.52546546457253
H           1.09682473385563   -0.59782513897801   -3.85617698024648
O           0.41079914715413    0.24816579360555    2.95257727394497
H           0.56681198952437   -0.03701418368628    2.03077500502700
H           1.04615354130480    0.94619122029995    3.12051250871853
O          -1.95854798298391    1.28572293926236    2.22015698268597
H          -1.25583669906991    0.93133866727965    2.80457897501566
H          -2.15961507844581    0.12975463427506    1.28698084908782
O           2.64274338418156   -1.22015795322182   -1.33318370041498
H           2.23835414522143   -1.57014413186123   -0.53312763130563
H           2.52399288334754   -0.24943799273495   -1.24884154335786
N          -1.99362396264473   -0.63563855266800    0.51602598712965
H          -2.46026651961470   -1.51547261825481    0.71114079977372
H          -0.91842773656838   -0.72481691564809    0.48388633652000
H          -2.24744130956216   -0.26097981650001   -0.39907262601322
