    23
        -45.35869247  Gyration_radius:  2.3597019766 Dipole_moment: 4.223
 S           1.17902918361914   -1.56190562230667   -0.26073153740764
O           0.71520187107093   -1.63675721823304    1.09240895774082
O           1.72817679699411   -0.25739917945959   -0.62423463136212
O           0.16729442712914   -1.97013775061554   -1.24954034618624
O           2.35109572507540   -2.60666332148606   -0.43110284044399
H           2.44641223609168   -2.62679405697297   -1.37712181025669
H          -0.94361559131465   -1.09885853418054   -1.40276161724607
O          -1.65702031403978   -0.32375944173697   -1.50288521176186
H          -2.13111973579181   -0.19203455690478   -0.55627644986484
H          -1.07617043594701    0.49289177411014   -1.67046946395843
O          -0.76011852490203    0.21178878598610    2.35413013262717
H          -0.20332134577338    0.98065373651596    2.08523016634288
H          -0.22722198296319   -0.55966013683187    2.08557963776525
O           0.17408018674431    1.42781651091201   -1.84003977081451
H           0.49536588471979    1.52492533184093   -2.73820820942546
H           0.82602996287568    0.84063179664562   -1.37110225432468
O          -2.70760492029896   -0.03481181603706    0.73916129629518
H          -3.14678262050027   -0.83760952261559    1.02638198671406
H          -1.95690649573902    0.12901988104761    1.41679723366283
N           0.98590797453962    1.93267939868239    1.22628924582004
H           1.69048838364677    2.44596161654892    1.74012665286706
H           0.60132998262116    2.54995288178483    0.52141998110871
H           1.44946934215065    1.17006945330820    0.73694884207757
