    23
        -45.36279686  Gyration_radius:  2.33827873022 Dipole_moment: 4.321
 S          -0.64198786228922   -1.40984216720540   -0.33496228674995
O          -0.21476825234278   -2.23575877298419   -1.41773757032800
O          -1.05805777723230   -0.07563858963369   -0.71235393086896
O           0.49781172693697   -1.28068938269551    0.71344454513796
O          -1.73961638616244   -2.08993344464805    0.46903625113476
H          -2.19242354728505   -1.34270439012680    1.01366019802062
H           1.26278825336364   -0.74011506297556    0.35877128368733
O          -0.71375507288814    1.18392896583872    2.86212927491667
H          -0.22398565600163    1.47573955652541    2.05866627256191
H          -0.93268011693669    1.97942173684399    3.35027132107970
O           2.40340848491271    0.10044884691938   -0.37804641088008
H           3.21768968096394   -0.40634821868892   -0.38145910641511
H           2.03747949774911    0.07795444802005   -1.32173825511715
O           0.36133757783371    1.86829538341827    0.50919261771595
H          -0.19412215377413    1.26997971487369   -0.02363762421881
H           1.26591584363901    1.56799225464313    0.36838063605119
O          -2.67258635958653   -0.00779601553651    1.52929962889032
H          -2.52472880346228    0.46072800384111    0.69815258511209
H          -1.99232729411642    0.34774837867142    2.15546436083324
N           1.20811613858471   -0.12582685601442   -2.69155234763909
H           1.62915707642169   -0.21079367657491   -3.60875118986649
H           0.49341214833398    0.59053626100167   -2.73951098369005
H           0.72392284317411   -0.99732698364425   -2.47671927947542
