    23
        -45.35502312  Gyration_radius:  2.38850775555 Dipole_moment: 1.392
 S          -1.59617448157023   -0.64351816837059   -1.19742644966139
O          -2.34451866718845    0.52264441687084   -0.86056334487309
O          -0.89283761873168   -1.32938545541531   -0.16137194594109
O          -0.65304272406300   -0.34338817813078   -2.36091554520419
O          -2.61160772730138   -1.68371875412739   -1.82282871179252
H          -3.28591734067923   -1.18610910019563   -2.28143850712276
H           0.22003405840703   -0.89793000009648   -2.21645172252801
O          -0.00759127989633    1.79785701598435   -0.09743636054628
H          -0.11762353310127    1.81148540176317    0.89064556409067
H          -0.85799238498274    1.50255730532083   -0.44273719740104
O           1.36814180964105   -1.65703838442648   -1.71123561029447
H           1.83378628084871   -0.92428815687390   -1.23113704397702
H           0.93389069524773   -2.17312963193393   -1.02140030772425
O           2.19261676856315    0.41316466361986   -0.31787827842165
H           1.35268914981750    0.95214824764954   -0.27289928014706
H           2.87703122234404    1.01501420764488   -0.61359410992814
O           0.99621231452487   -0.98133821996755    1.87877580088689
H           1.64132633803277   -0.56146382149595    1.29556800394265
H           0.25272899003912   -1.21661303406424    1.30790415436551
N          -0.30260637954851    1.50997300942363    2.56343975391889
H          -1.27455447062557    1.36852869478697    2.80629992209882
H           0.11414057087814    2.10368723225844    3.26867040795111
H           0.16186840937844    0.60086069979133    2.59801078829362
