    23
        -45.37976842  Gyration_radius:  2.2635060147 Dipole_moment: 4.336
 S          -0.82634037408339    0.50635793509276   -0.64586979434340
O          -1.06217708861513    0.40935325672021   -2.06246108190920
O           0.16960694519935    1.51299592393023   -0.28068297349210
O          -0.50381549692841   -0.79305902697134   -0.04628634554207
O          -2.14982441308002    0.97425333057407    0.07882111235750
H          -2.82294821819901    0.35327682484498   -0.26668798449440
H           1.16400192946093   -1.45630515929263   -0.04530335710384
O           2.13192414221414   -1.33266731925168   -0.02491296995244
H           2.07143178401599   -0.21841378364389    1.08590327955626
H           2.31431929122248   -0.85066444672570   -0.85585955572685
O          -3.13426853178497   -1.06910842822324   -1.27465727600156
H          -2.64928547613706   -1.79790359682731   -0.87746798986760
H          -2.51474497105120   -0.65787772982481   -1.90316905756264
O           1.82057388060983    0.36990398156767   -2.11222284745218
H           1.17793698420670    0.09075701374516   -2.77036921556017
H           1.33419683352802    1.00159660409679   -1.56019404279245
O          -0.67579843566972   -0.19965824746457    2.51572695017816
H          -1.37314206453143    0.45975260668945    2.53329504386075
H          -0.69945426672553   -0.57208989279831    1.60615460732091
N           1.69543016762060    0.62709817866913    1.63339477008456
H           0.95151774256496    0.29659587651244    2.28868133348945
H           1.16130568786990    1.17356565242474    0.89716230387851
H           2.41955397826864    1.17224044611951    2.08700508106313
