    23
        -45.37675810  Gyration_radius:  2.2964549699 Dipole_moment: 6.053
 S           0.40182040974931    0.44960954353881    1.27579105554882
O          -1.02648325474749    0.62594834895068    0.98728577854688
O           1.22650947207186    1.28963030876389    0.42709076594909
O           0.77531569714420   -0.95578322107335    1.18606845452357
O           0.58622105167448    0.90881405885324    2.75853244077477
H           1.54430053411961    0.77092371561111    2.89127205263777
H           0.57957161909188   -1.82888625603810   -0.25563567594739
O           0.73046279063837    0.39776453256257   -2.05014136222716
H           1.08204236827431    0.77023779428360   -1.21776593641938
H          -0.13860005589694    0.81584941789119   -2.15001239541195
O           3.05647925380911    0.22176080720534    2.13082275208104
H           2.65964621840290   -0.61885812919523    1.86683822591914
H           2.91344880293234    0.80868810539479    1.37525324856663
O           0.24208960409643   -2.02673664241860   -1.15882488982054
H          -1.14262687140152   -1.66986236194116   -0.91853838215828
H           0.54843747890371   -1.24783248096690   -1.68990551930991
O          -1.74536046931635    1.53009654203712   -1.42763373632399
H          -1.45876910561533    1.37979718716675   -0.50228419717454
H          -1.75797288526923    2.48037742111088   -1.55064334528170
N          -2.08659466840271   -1.17349846367568   -0.58538638057940
H          -2.79509520274842   -1.82823569119965   -0.27355487137880
H          -2.43740042363782   -0.55858528607549   -1.31991242121755
H          -1.75744237389403   -0.54121926076652    0.20128432870425
