    23
        -45.36027612  Gyration_radius:  2.38227602732 Dipole_moment: 2.550
 S           0.45711287341753   -0.75252354060619   -0.68321861776385
O           1.09130239964109    0.31709900385871   -1.41068842708115
O           0.07730664874049   -1.88232209472538   -1.47223018396503
O          -0.80668516425658   -0.19202083350923    0.03164779593828
O           1.37261252158146   -1.13635777289686    0.47556269466437
H           0.85006565944556   -1.35932037766323    1.34193034742371
H          -1.58752097690221   -0.39361767240826   -0.59268696389784
O          -2.43985155393193   -0.84498439800901   -1.78891155227567
H          -2.02812676308502   -0.28706088649241   -2.48745390668480
H          -2.02289849431733   -1.71041186361938   -1.88780684966559
O          -0.51380389013693    1.02060076207421    2.59760008657885
H          -1.23475362810235    0.98190109213296    1.96347107084849
H           0.25265016704591    1.39281926286540    2.08424435290383
O           0.16822164530918   -1.48065171187356    2.64896919407478
H          -0.16543254260277   -0.53416394792813    2.72662721161287
H           0.82300520073791   -1.59641784428558    3.34149218238530
O          -0.71518219574738    0.40709568840394   -3.40444852192177
H          -0.36917251347417   -0.19808850116721   -4.06431251492592
H           0.00023289510205    0.52258137596055   -2.75266294234262
N           1.49780577152530    1.87280951695608    1.02044219671254
H           1.35004294785439    1.38496535392428    0.13971676050143
H           2.41512954324346    1.60295629034014    1.35433667948296
H           1.52793942891839    2.86511311866637    0.81837988739347
