    23
        -45.37659955  Gyration_radius:  2.36350777255 Dipole_moment: 7.140
 S           0.97439596040611    0.05858960427513    0.90994769929965
O           0.01210975098314    1.17610111051729    1.04411253909593
O           1.42098701497607   -0.05267020290879   -0.47187837787326
O           0.41039049505264   -1.16757676854926    1.41618710631599
O           2.23200253527586    0.44674431743340    1.74793980659761
H           1.85949049682129    0.68841158852634    2.61820534808777
H          -0.79850809393320   -1.95241752892037    0.51347894750546
O          -1.40043647150716   -2.11509583814740   -0.24752494065231
H          -1.75870459158360   -0.69045858099748   -0.53783377790775
H          -0.78820666984094   -2.36504020073102   -0.97265207014535
O           0.62292775633567    1.46017044840461    3.59270392497678
H           0.14901321267044    1.43884958900407    2.73803862417194
H           0.77506602738658    2.38476329907025    3.80103983528972
O           0.59214462284467   -2.10409632201840   -2.04096822003549
H           0.44694407171919   -1.57278443035133   -2.82790246389702
H           1.07415496478494   -1.52412763571952   -1.42311467824669
O           0.09172735707951    0.92470156463904   -2.51967284543563
H           0.67866129210938    0.59629002840631   -1.79600459614668
H           0.43981029305829    1.78110220747611   -2.77113361630110
N          -1.79509445940464    0.39597206549080   -0.67307866565470
H          -1.31774777539837    0.64045107948673   -1.56439283659203
H          -1.18030489525758    0.79321207208827    0.09473691028761
H          -2.74082289458760    0.75890853351897   -0.63023364273128
