    23
        -45.37435575  Gyration_radius:  2.26483330453 Dipole_moment: 6.443
 S          -0.66092750140223   -1.37357722851533    0.15348500789107
O          -1.28278163977661   -0.02283524229134    0.18093501750204
O           0.14137843504968   -1.57636243507226    1.32913421657978
O           0.05009022042700   -1.54234131490654   -1.10292147745338
O          -1.84187837946005   -2.39608725237946    0.19556246502653
H          -2.31249235474204   -2.23371467761740   -0.64267495053536
H           1.57875962810923   -0.66607806067147   -1.00115806429796
O           2.19409063706942    0.07124308105084   -0.83033211729130
H           1.68894551626196    0.86642806311809   -1.05997429553263
H           2.46988335422141    0.02843323344994    0.84256949553348
O          -2.38303795484643   -1.17528376592019   -2.10767961716860
H          -2.50017023871282   -0.37951269824622   -1.57812339868462
H          -1.42264806233419   -1.33446173040308   -2.12530789368666
O           2.20601307572320   -0.00216762485303    1.79759398702783
H           1.63538213771607   -0.79618400748925    1.84217867710738
H           1.12472209294883    0.96232405506484    1.81255322962132
O           0.06211642861786    1.83941041903406   -1.18479110901353
H          -0.49087424198452    1.12118845530304   -0.80985497792935
H          -0.15990360178314    1.89794741279148   -2.11532859620512
N           0.19504541348225    1.56705369040352    1.66493065571847
H           0.36782571213133    2.30301756274592    0.98023215042331
H          -0.16150066067837    1.94538205336330    2.53575398050338
H          -0.49803802603916    0.89617802202078    1.22321762488179
