    23
        -45.37886221  Gyration_radius:  2.27347206461 Dipole_moment: 5.396
 S           0.62820407904721    1.33288178222977    1.11373249252449
O           1.28322507192852    0.03619981624657    1.15595369529442
O          -0.62744268815887    1.33835506317951    1.85522472639178
O           0.46429915853486    1.84612872830550   -0.23243309357707
O           1.60157596076527    2.32581409183972    1.86741925841244
H           1.14588106312319    3.15981078040258    1.81063160867950
H          -0.72511650343989    1.17499777500475   -1.30349228054401
O           0.27864143082428   -1.48825557360492   -2.02215416844179
H           0.16879853827626   -1.96101768378466   -1.18658968975729
H           1.12714519765305   -1.00340500740582   -1.93562338180019
O           2.33649301593264    0.11735936996270   -1.31694561356243
H           2.17549354181219   -0.00563551713379   -0.36588988274881
H           1.95878209125204    0.98407410214820   -1.50080270171505
O          -0.06838853945008   -2.16368308703774    0.74013096935040
H           0.48736864064715   -1.36724636661195    0.92792555179363
H           0.31405086545522   -2.88001023024919    1.24899673950327
O          -1.36677358017183    0.54508131605223   -1.69105375395232
H          -0.81265941180973   -0.21324920967950   -2.01309473146823
H          -1.94525319647689   -0.00825990811580   -0.43958389339273
N          -2.11066688774073   -0.37428325159674    0.58370206662957
H          -1.59576048471657   -1.26349026406182    0.68860264794830
H          -3.09291613096162   -0.47332638648463    0.81351513623315
H          -1.62498123232543    0.34115969039474    1.20182827820032
