    23
        -45.36366604  Gyration_radius:  2.45961239096 Dipole_moment: 2.217
 S          -1.23227427742034   -0.78810132267570    0.56914938612044
O          -2.41048047673701   -1.36157448084516    1.12978576962627
O          -0.15593251935901   -1.67985074541190    0.23772526535061
O          -0.63896462661889    0.26115361250652    1.57189245841049
O          -1.62713769952379    0.05704076549036   -0.64060199378177
H          -0.79315390461390    0.52395847038347   -1.09892927480954
H          -1.46743755788363    0.81272176010908    1.82247890522811
O           2.00705970615649   -0.60882161501115   -2.81316625872533
H           2.20615747100820   -1.07697292315016   -1.97935287264850
H           2.82293761345490   -0.19186711817527   -3.09585652148586
O           2.40129664516274   -1.65356104435444   -0.31918576672065
H           2.76323471249731   -2.51866652590557   -0.12077385311124
H           1.43934617222440   -1.71151151746651   -0.11603009084336
O           0.38051053215984    1.16020046960473   -1.61669051766274
H           0.97860938884917    1.26416699478099   -0.83693691074428
H           0.84030823209688    0.52033245582229   -2.20595875412108
O           1.87897161752953    0.95771286952744    0.57393771703481
H           2.31218603665377    0.11242573176441    0.38518347094247
H           1.13137632306988    0.75247957243822    1.15216570628183
N          -2.95133519485729    1.28792214502306    1.88056921820188
H          -3.20460401808367    1.89057493002618    1.10844590699090
H          -3.38097842685675    1.63857960967270    2.72662471600827
H          -3.29969574893144    0.35165788582264    1.68552428446572
