    23
        -45.36279688  Gyration_radius:  2.33842835689 Dipole_moment: 4.323
 S          -1.37933325441999   -0.01163403300055    0.78118110458928
O          -1.66278092782783    0.82916606938282    1.89910279003813
O          -0.20911603400034   -0.85077524549750    0.92987257278406
O          -1.19336578098780    0.85246622916524   -0.49695454514607
O          -2.58733935250315   -0.86190114064684    0.41862165440130
H          -2.22551863600016   -1.62912474567445   -0.16489631866102
H          -0.35122080909378    1.39311375459459   -0.45539410372254
O          -1.33751108454084   -2.64068150432566   -0.84777265611158
H          -0.62488628422879   -2.57760512718594   -0.19938907604988
H          -0.97693830879795   -2.23119151274689   -1.67456943799364
O           1.64661219430861   -0.44146055169422   -0.98723046482614
H           1.71765152959049    0.51937917232544   -0.98867368369063
H           1.08221218386950   -0.65631140498929   -0.22193735755628
O           0.99600032799638    2.21296824091211   -0.20391397640737
H           1.13046993569070    2.00568600377654    0.77792043614180
H           0.81179430642342    3.15197137090756   -0.26918190337291
O          -0.01127403183275   -1.46567781540396   -2.82093931508230
H           0.48723881983854   -2.03019503680448   -3.41409111630539
H           0.64757802212890   -1.02538404006157   -2.23563121544786
N           1.07325070094115    1.49610026737817    2.30843262507601
H           0.06834129566915    1.35526431634878    2.41062351129030
H           1.40433544532093    2.03031964658851    3.10260858227307
H           1.49379975238292    0.57550708664041    2.35221187373206
