    23
        -45.36376835  Gyration_radius:  2.40376945204 Dipole_moment: 2.966
 S          -1.30294832127140   -0.20944913677297    1.64163428348801
O          -0.69815831809739    0.31412326017317    2.84175265981228
O          -0.40807539730834   -1.01920707705518    0.82883364495643
O          -1.95158409383782    0.82983247018156    0.84199908882021
O          -2.45911426228638   -1.19264456381408    2.09538086066611
H          -2.96402138422915   -0.65314826254408    2.69535050343592
H          -1.41392044932609    1.10360460861491   -0.49040898344430
O           1.01293870899555    2.15121323823446    2.02853003206980
H           1.63366234782071    2.29616430585965    2.74480289929779
H           0.32814099016875    1.54154808858948    2.38369950819151
O           1.34448165781749    0.71155324054157   -0.16773413244110
H           0.89046023502889   -0.04886448974968    0.25463432914669
H           1.40067874108467    1.37806432705762    0.55253032648204
O          -0.88719921189487   -1.34411460390616   -1.77471383044375
H           0.04335230930978   -1.47955642461519   -2.10136616894794
H          -0.83828581293409   -1.49840542694119   -0.80856218735702
O          -0.85974304066700    1.10562033093588   -1.37413040978139
H          -0.96501776988044    0.08332740895596   -1.70300393420262
H           0.10542341116146    1.12083325842414   -1.01910713954043
N           1.72892366773204   -1.33920791921872   -2.36249917672916
H           2.03368064787977   -1.08416060257629   -3.29312758787524
H           2.22954330483805   -2.17421128108410   -2.08637026896807
H           1.99678202990279   -0.59291472929716   -1.72812433663431
