    23
        -45.35836429  Gyration_radius:  2.33254398684 Dipole_moment: 2.792
 S          -0.62936951885748   -1.06615428497385   -0.14389617593876
O          -1.66163600945332   -1.74651001986582    0.56987342462863
O           0.71017384121656   -1.20100738654381    0.33195569170780
O          -0.98038024732735    0.47071183053838   -0.16368031853794
O          -0.70110956697261   -1.44199020077752   -1.62596530311231
H           0.19786316042760   -1.10696439241590   -2.05584927873752
H          -1.93111996487400    0.48268908627305   -0.44493320937975
O           1.49849656308275   -0.55721995268045   -2.40143705511873
H           2.13553150853132   -1.06281697985317   -1.88863890216668
H           1.51622273206261    0.37117895802771   -2.01175091082050
O          -3.36079269208403   -0.26560605381020   -0.86892246366365
H          -3.14022361538282   -0.99704527010363   -0.26711818471277
H          -3.34168932191858   -0.62993692579908   -1.75806217175358
O           2.45992576544743    0.77590745103157    1.17235861907014
H           2.12694873157000   -0.10157167147524    0.94013636902288
H           1.86711444762741    1.05786699018714    1.88802212099930
O           1.41174776991516    1.68922060331182   -1.09931423353936
H           1.95342143564941    1.49749691652341   -0.29576846954825
H           0.50005302504660    1.67053322629530   -0.79057795348569
N           0.09446404304426    0.65390910568428    2.70420148138730
H          -0.12043502219380    0.45217735710248    3.67326735529855
H           0.02336742176323   -0.21423571467005    2.18419174528660
H          -0.62857446632171    1.26936733797727    2.35190781312568
