    23
        -45.36638243  Gyration_radius:  2.37507569197 Dipole_moment: 7.406
 S          -0.38296791683056    1.00180628834501    0.49709313562669
O           0.58278426720507    1.51068340395012   -0.42766952006668
O           0.15172982732819    0.07255674767412    1.47433260179251
O          -1.53104537332744    0.30931647188245   -0.24350137609603
O          -1.08292878547079    2.15389405275261    1.22069418547126
H          -1.70447545186195    1.67361691498252    1.88025921987199
H          -1.14965869930553   -0.43700317353348   -0.91291076876361
O          -0.47384174083978   -1.37082741902430   -1.73094691007654
H           0.22124256680506   -1.74451125253878   -1.15807866282241
H           0.00461596312027   -0.78249732833282   -2.38327736208054
O           0.92098471195663    0.39110401416083   -3.06577290173766
H           1.79647924252371    0.22124044053153   -2.65810710826314
H           0.60302219241568    1.17767305711968   -2.60944407502869
O           1.41244947629913   -1.85277063277821    0.19134026850405
H           1.00546374428603   -1.14962619771513    0.74661470765590
H           1.61802364758767   -2.58406975191851    0.77619224496802
O           2.86835980362749    0.11030789498066   -1.21916712265064
H           2.32235508796649    0.79486661461590   -0.80673400923857
H           2.62087220221401   -0.71169514531379   -0.77463009376695
N          -2.39142809547798    0.53252385861939    2.70344490991779
H          -2.70638253428675    0.65286108467176    3.65689945468235
H          -1.57744300924202   -0.07367876003232    2.68449985791812
H          -3.12821114668922    0.10422884690898    2.15886935416012
