    23
        -45.35156779  Gyration_radius:  2.49104675882 Dipole_moment: 1.158
 S           0.84077080756927    1.97736171674236    0.70909254651371
O           1.52312374205993    1.02048993298489   -0.09389929703896
O           1.05567074886348    1.93916301156467    2.12647377717917
O          -0.65468101783412    1.97423509072656    0.42978621603149
O           1.29476512372119    3.41530703064712    0.22023597117650
H           1.06847834853506    4.02349699333052    0.92083507546006
H          -0.90736526931196    1.35894127030002   -0.42900341816620
O          -0.30124711288881   -0.39730646013239    2.06597824805877
H           0.29182199386803    0.34950753894270    2.24224327627641
H          -1.19419973035267   -0.06196257592922    2.17847542428527
O          -1.24624615381826    0.46700492602546   -1.42593156432976
H          -2.17040843634465    0.21037456844339   -1.26086771999335
H          -0.73839099840271   -0.34822821118483   -1.14209127408875
O          -3.09595394034055   -1.32567020561283   -0.49529846797173
H          -2.22486746058791   -1.72174635108994   -0.33559607803762
H          -3.64032222340607   -2.01154899180788   -0.88355724748645
O          -0.31628092735742   -1.72136769281733   -0.32826101632055
H           0.60821156241657   -1.85265349165343   -0.64900731634314
H          -0.21824624441811   -1.36591755966683    0.57497754285209
N           2.26533374121828   -1.61207840268905   -1.07639099869113
H           2.56833786994241   -1.62823698153041   -2.04203053477995
H           2.98581596373277   -2.05187118952677   -0.51759405075818
H           2.20587961312819   -0.63729398605772   -0.78856909382280
