    23
        -45.35156785  Gyration_radius:  2.4910243986 Dipole_moment: 1.161
 S          -1.52307255254489    0.49937346883167    1.59693579292929
O          -0.88310833049205    1.16219978121166    2.69593664807136
O          -1.07216738559317   -0.80610733593083    1.25272931036678
O          -1.52682696764135    1.42409644012188    0.38895862803984
O          -3.05999470417469    0.38654647351696    1.96834256353799
H          -3.27943819815784    1.17720053495269    2.45695178249309
H          -1.33405630962599    0.88721192292630   -0.53543261291076
O           1.20864212799047    1.49925707970388   -2.80694029523748
H           1.69365580416973    1.42609589914104   -3.62973706296957
H           1.56588697224404    0.81925928557978   -2.21438978014562
O          -0.94763085224557    0.23452546262586   -1.68822837982800
H          -0.13269670878960   -0.25534863481180   -1.37363490265136
H          -0.57376952840089    0.91473578081896   -2.27534106093883
O           1.28730976060155    1.29327243702583    1.09099016374537
H           1.10763472095774    2.12899583786740    0.65314812187095
H           0.64968839895510    1.22718237145713    1.81871036301467
O           1.42122320233225   -0.56733870639285   -0.91068558254467
H           1.32593221985605   -1.47587942304794   -0.53617207202516
H           1.49229617485407    0.01659691681836   -0.13241507317619
N           0.79320321436401   -2.85045394206030    0.36583261395617
H           0.05245057434453   -2.29482608682935    0.78913269683061
H           1.37597984449659   -3.20320439364174    1.11462276629906
H           0.35885854246885   -3.64339116988475   -0.08931462869724
