    23
        -45.37304259  Gyration_radius:  2.28344395347 Dipole_moment: 2.973
 S           0.48822264312977   -0.40874743966437    1.62889213115564
O           1.10690722504832   -1.07767618471640    0.48617496162453
O          -0.96089636592447   -0.49342873950635    1.60538598259754
O           0.97392191649959    0.94464913563668    1.79002115391597
O           0.97106785932960   -1.22305921148207    2.89665058089735
H           0.62419571641687   -0.69341776024856    3.60644865189729
H           0.96370277810180    2.21325399760011    0.62282300588084
O          -0.50005107981133   -1.13462424451702   -1.71093831458123
H          -1.32935737023580   -1.59897133224951   -1.50858674858132
H           0.05611149400317   -1.33944874177133   -0.93838028528117
O           0.79978912326823    2.57847093197323   -0.27389901052086
H           1.43889058452658    1.51220501596634   -1.04645231995007
H          -0.14397008383843    2.33277326031757   -0.43165336072656
O          -1.40099116953451    1.16002408206372   -0.48846679004473
H          -1.21826077549763    0.44680901903381   -1.12761873143698
H          -1.38114797290832    0.71581743118412    0.37639351657643
O          -2.50650299642899   -1.97289364118557   -0.07270731495546
H          -3.37953288842409   -1.58736239728004    0.01704855845770
H          -1.95854326589118   -1.54990217222450    0.61540824520800
N           1.78796097620490    0.53752131103349   -1.45075210545823
H           1.70268232262644   -0.12809675031783   -0.62814220597558
H           2.73471248992874    0.57076091283081   -1.81250267069790
H           1.13108883934094    0.19534351758340   -2.15514694002233
