    23
        -45.36875594  Gyration_radius:  2.37319675846 Dipole_moment: 8.086
 S          -0.50215189332897    1.65590127422513   -0.23669074231284
O           0.08097028956144    2.86509462985682    0.26590200922523
O           0.37972011746113    0.82700885215562   -1.05158870224813
O          -1.64904136469667    2.11296527388882   -1.27829203090856
O          -1.21802173565276    0.84818739722057    0.74420992132894
H          -1.73249633265700   -0.38198265583053   -0.22883928890662
H          -1.76496764633040    3.04506783642039   -1.11855565946881
O          -0.37890467013055   -3.12644177452751   -0.66007483928892
H           0.39064211703157   -2.59648955657731   -0.28676177785798
H          -0.00590373320775   -3.69263368627519   -1.33721403138496
O           2.23445402295698    1.74545033362739    1.45087799111912
H           1.51418501707540    2.29852889109215    1.10307509818340
H           2.73881144114330    1.45207545049772    0.68923644175823
O           0.70239335745544   -0.32937846513672    2.35215746362289
H           1.35667835149046    0.39181965496802    2.32263691753546
H          -0.11141242912983    0.05994212826397    1.99839564691164
O           1.45903384289474   -1.46310850940765    0.07812075366762
H           1.27526079893118   -1.21925503937265    1.01777590970374
H           1.25847324996250   -0.65321712693575   -0.41794852837555
N          -1.58717698606398   -0.86865329428155   -1.15260344876067
H          -1.23409615780614   -1.86939493333883   -0.99649709481466
H          -0.79473445568035   -0.28640869765256   -1.51603691333485
H          -2.41171520127286   -0.81507796287445   -1.74128509539402
