    23
        -45.35061218  Gyration_radius:  2.45314148208 Dipole_moment: 1.724
 S          -1.84671142382637    1.03622763302839   -0.32364489732790
O          -3.10292168604477    0.56766573512727    0.14972255920363
O          -0.87353714307817    1.33900134020316    0.69752811649113
O          -2.05889537768729    2.37092094727807   -1.15732086133625
O          -1.29036168593145    0.11156052832532   -1.37451528651575
H          -0.32992084680809    0.44276229200986   -1.73795044608670
H          -2.26519203315667    3.07753699985530   -0.55007009514281
O           1.18932499702376   -2.44082040275824    0.25820421931908
H           0.29173186647386   -2.15020606869080    0.54756210470403
H           1.54067976076671   -2.98846100451863    0.96141089799473
O           1.68827401990501    1.27317254934302    1.57692106932223
H           0.78840903778856    1.40533766028405    1.23153155096934
H           1.58614722820201    0.95276253214482    2.47443034857744
O           2.51243319219595   -0.22215523868655   -0.52882297803535
H           2.39425629191079    0.35109630123931    0.25335221436862
H           2.09499923102086   -1.07837133617633   -0.29655178583556
O           0.91873788583515    0.80273649799553   -2.22177348023066
H           1.06259541927864    0.32246931900166   -3.04100971757128
H           1.60177768801674    0.42576372228472   -1.54944213541626
N          -1.23029113408071   -1.54823382746648    1.12557081391622
H          -1.07033800979234   -0.55931820277523    1.28526180062297
H          -1.77019425689822   -1.89735529483041    1.90917424442918
H          -1.83100302111239   -1.59409268221091    0.31043172357408
