    23
        -45.37543828  Gyration_radius:  2.26399217638 Dipole_moment: 5.714
 S           0.62450838856076   -1.22932053653745   -0.50640108480529
O           1.30311006994982   -2.32056551315356    0.13873963691102
O           0.98175052547256    0.07289330022643    0.08646011044173
O          -0.93090896720020   -1.38550652542846   -0.26187311820244
O           0.71503690134535   -1.18267244411772   -1.95640925605749
H          -0.18388600158010   -0.02352889662020   -2.23000037489614
H          -1.11648161063330   -1.28700747766963    0.70497462269164
O           1.43832266991206    2.24033439949131   -1.39364689718287
H           1.48642652436161    1.42108162601618   -0.85299623883704
H           1.32392538374127    2.95947115091988   -0.76884223424256
O           1.29804346347975   -1.24681896349752    2.53836192044593
H           1.40033441664671   -1.80034871322514    1.73093775667540
H           1.69174032271913   -0.40498015165278    2.29258333197252
O          -1.30714531279124    1.36720596521333    0.34250366027803
H          -1.82708786474550    0.89841847485065    1.00068611904250
H          -0.41115819301183    0.96918402100559    0.40397779623288
O          -1.29135278965986   -0.96120553742102    2.29884459656640
H          -0.32073164941665   -1.01636148244532    2.52207379856367
H          -1.70659338865679   -1.69290137235929    2.75917483723549
N          -0.70522678908153    0.92882579331576   -2.24482381643081
H          -1.24687399656289    1.01481617748584   -1.35539692947539
H          -1.28229954431084    1.04176655982305   -3.07091013472400
H           0.06654744147472    1.63722014558343   -2.17801809191399
