    23
        -45.37543830  Gyration_radius:  2.26418600427 Dipole_moment: 5.716
 S          -0.38121244981992   -0.26340097602224    1.39339572706864
O           0.08675418310759   -1.20348967866409    2.37566137799570
O          -0.47281643203309   -0.86553442402169    0.05035373667389
O           0.68417514355233    0.89844919373871    1.25726126513061
O          -1.59866819417316    0.45889859086277    1.72343596507994
H          -1.67439326935874    1.37913470082950    0.55147760982738
H           1.52528778050435    0.52275638396850    0.89624184744183
O           0.57314397362201    0.92791061390164   -1.58356697152010
H           0.26180059973524    0.13895328161406   -1.08801244082980
H           1.50861309296760    0.99308522203620   -1.37400270530117
O          -2.51707092212879   -0.39711134099213   -1.59231701975281
H          -2.16305303373902   -0.63033532492479   -2.45308009134069
H          -1.87639976238228   -0.74856970937964   -0.93523145987585
O           1.69262825068228   -2.50231258389033    0.74924291388447
H           1.15376344769359   -2.15257108905230    1.49498208444689
H           1.04569847773691   -2.68129757948320    0.06110844716033
O           2.79506332688240   -0.20312843540663    0.16329361281039
H           2.47339011226852   -1.13738553235050    0.29962851958534
H           3.59199044245695   -0.12260472540532    0.69086515336709
N          -1.68392233599476    1.83873875487563   -0.43224249720382
H          -2.24302558686057    1.16885945720484   -1.01594597470981
H          -0.71198208526307    1.80460846299763   -0.81431401184124
H          -2.06976476876215    2.77634673745215   -0.41823508871030
