    23
        -45.37306624  Gyration_radius:  2.49070312409 Dipole_moment: 4.357
 S          -1.28404256016063   -0.25659219876798    0.47651665282534
O          -0.89899673767743    1.14618766431772    0.42914674432931
O          -0.13832204174307   -1.10586953757712    0.09406364797844
O          -2.46446294543453   -0.57020447550181   -0.29145172427188
O          -1.56846163046319   -0.57084140800586    1.98790671438560
H          -2.11432112439053   -1.38464559938440    1.97611912673321
H           0.79657157525552    0.86235129579251   -1.97719060953683
O           1.39441454805419    0.41940160148573    1.68003321014084
H           0.98980512751194   -0.39542867768869    1.33749027956484
H           0.68530074631261    1.06630344121042    1.55400005507023
O          -0.19546545532892    2.15099584122725   -1.87434556304973
H           0.15976245028901    3.01937608945476   -1.67342515465962
H          -0.61697532997276    1.83483363509314   -1.03738364414907
O          -3.23016320785051   -2.50304530294438    1.28153622519040
H          -3.06983128107137   -1.93899108237600    0.49335246454670
H          -4.15114709496912   -2.37381374020177    1.51935834580234
O           3.29833806034194    0.69144693336342   -0.12113274070485
H           2.65245612831230    0.69956062700448    0.63471419353610
H           4.03276080063185    0.14841794687909    0.16878503247061
N           1.32061324253616   -0.02579503005945   -1.75741859692298
H           0.70602491094123   -0.55442087466234   -1.05278133303945
H           2.21261634324544    0.22253584525124   -1.25873948021490
H           1.48352548561594   -0.58176300393321   -2.58915384601053
