    23
        -45.36378205  Gyration_radius:  2.26070960398 Dipole_moment: 6.972
 S          -1.15224960357931   -1.05635000392804    0.31600206344994
O          -0.38482075810502    0.12169105706615    0.75734005657158
O          -1.57757814170211   -1.86401697560409    1.41823773680638
O          -0.14608152822488   -1.91489235896198   -0.56787593421262
O          -2.17517814762937   -0.62771089806475   -0.63173319550615
H          -1.53615364965822    0.30351047451850   -1.49437843637631
H           0.38732723854140   -2.40234454223732    0.11341756681339
O          -0.95935712331109    1.05278289780657   -1.98016595340426
H          -0.00058690069280    0.70616345285882   -1.96448080242460
H          -1.00017927511424    1.85047988109602   -1.28052257632146
O           1.02613555085741   -2.65456801331857    1.59703924334439
H           0.15269679929873   -2.44447587617756    1.96645416635401
H           1.58583933147441   -1.86571327566613    1.66085524068306
O           2.16195576006374   -0.09608856205187    0.99313454482483
H           1.17899262015887    0.02894769408518    0.96120090494237
H           2.50058889768761    0.53363136955949    1.63064018871483
O           1.37110290288147   -0.02029819202313   -1.74742735085435
H           1.87309778844335    0.15881481726512   -0.93713369541910
H           0.98701046147234   -0.90061858969382   -1.59828785521894
N          -1.06236354957119    2.69850292353091   -0.05199650763636
H          -0.39396258336498    3.44120742663524    0.10328898016592
H          -0.84813329661179    1.91178850034778    0.56648258247734
H          -1.98810279330795    3.03955678295070    0.16990906223301
