    23
        -45.36378524  Gyration_radius:  2.25943934126 Dipole_moment: 6.955
 S           1.16893725501359   -0.37388691734428    1.04697688005944
O           0.74547686233727    0.48496539083338   -0.07321432244978
O           2.58339089986819   -0.59160133514664    1.05125763178977
O           0.45136549107310   -1.77339390208753    0.80483919683643
O           0.56595990726002    0.11993483862326    2.27991773358452
H          -0.78861581899053    0.41615915194638    1.96081097713974
H           1.02580114125725   -2.19815143173815    0.11761413602544
O          -0.00132512612605   -0.61190592385962   -2.26958809335858
H           0.05632706078460    0.01059104838745   -2.99536564692397
H           0.32105123651914   -0.13948577775502   -1.45962048872188
O           2.13280075067535   -2.20194738439496   -1.09794999700203
H           1.64367093208870   -1.70614487448913   -1.76960336606411
H           2.65351664592037   -1.57569275730223   -0.56815815589136
O          -1.72866743407393    0.69294719229302    1.55125048082579
H          -1.49672869828268    1.60760964150987    1.06518835341248
H          -1.91503297882489    0.01154829662624    0.81371861090468
O          -1.93205958639790   -1.09799094344393   -0.28458418818926
H          -1.29641065399718   -1.68455101570293    0.15638044986915
H          -1.51334728039443   -0.89722541547202   -1.13860778364178
N          -0.84430255813269    2.73368279627313    0.33029766520271
H          -0.05852895752950    2.15249226656967    0.02612441304295
H          -0.48890434868223    3.46700848646856    0.92902446733351
H          -1.28437473133773    3.15503858920857   -0.47670896377731
