    23
        -45.36676972  Gyration_radius:  2.28144896253 Dipole_moment: 3.855
 S           0.24234311539600   -0.66855794514189    1.51706201254833
O          -0.97591648218878   -0.51608757240781    2.27850352807234
O           0.78108576840130    0.58762256101282    1.02099875442187
O           0.10242201110847   -1.63482787579419    0.42483440893139
O           1.31348345140557   -1.26765897676823    2.51286970873192
H           0.75486791726683   -1.62608498850523    3.19485312401665
H          -0.89820991215013   -1.08396155988197   -0.60760411760951
O          -1.41936609125763   -0.43824483766689   -1.19900194522708
H          -2.02093567491908    0.11815684650849   -0.48725685329126
H          -0.64795676315608    0.21200415647814   -1.52204241425267
O          -2.54232739022766    0.80550016681475    0.62806720226756
H          -2.09050231557607    1.68164583563774    0.64716429000384
H          -2.14245371897945    0.30537479039118    1.37620963140976
O          -0.75475980071556    2.76942844518416    0.64818542155650
H          -0.42415173887877    3.07166240450882   -0.20118477231442
H          -0.11323825470679    2.10813744967537    0.96852762832100
O           0.63267667979511    0.93114785291179   -1.61060266810846
H           0.83008067909886    0.94878146110618   -0.64927077257689
H           1.21867103039198    0.20441775635012   -1.94171273320803
N           1.95789794231437   -1.37595364268111   -1.83208500625912
H           1.80274747830180   -2.06377347057327   -2.55856820219358
H           1.44925677015092   -1.68262780636152   -1.00325076932935
H           2.94428529920370   -1.38610104070763   -1.60469549592442
