    23
        -45.36316474  Gyration_radius:  2.31811677832 Dipole_moment: 4.158
 S          -0.52597537730601   -1.59136743267361    0.67905505529995
O          -1.03716260298114   -0.97363947313747   -0.54396296773926
O          -1.54834208828245   -1.86075879641288    1.64026488125375
O           0.55858629650302   -0.73155419994975    1.22919842601858
O           0.17549813315078   -2.93148530699564    0.27488785482696
H           0.96631369775934   -2.66021094419217   -0.22353752320034
H           0.05999640475408    0.60620397655330    1.53949799771078
O          -2.65039313844538    0.52407604659279    0.85448704003977
H          -2.85334671821326   -0.16270038504616    1.50351843273142
H          -2.21790530147046    0.01376562104469    0.13079419307445
O          -0.44418304960563    1.51830562356560    1.59716865269780
H          -1.41943360203475    1.24713800577675    1.37469906530891
H          -0.09439376320199    2.08680030221426    0.77453080263628
O           0.30312377505528    2.72787188772488   -0.46926626337829
H          -0.45234356107982    3.14939880449441   -0.88399929543075
H           0.56888714002516    1.94223478867835   -1.07587894607647
O           2.37340999939489   -1.52828161748372   -0.46450744119660
H           3.16935093885902   -1.83778169262724   -0.02722573616717
H           1.84112048661310   -1.06735589145920    0.22086855267333
N           0.79433932179219    0.63980029707405   -1.91986813928908
H           1.68943256656503    0.19507579862123   -1.75009364104795
H           0.65957282223608    0.68636774584788   -2.92197144147544
H           0.08384760994678    0.00809683167749   -1.53865956930969
