    23
        -45.36058080  Gyration_radius:  2.35935518347 Dipole_moment: 4.481
 S          -1.33566618231529    0.10812373071634   -0.51616517520372
O          -1.63160359726582    1.04110954249657   -1.56878435145930
O          -1.16300174705959    0.73787813976093    0.78226221230538
O          -0.12821490696418   -0.70118423089846   -0.84721787486938
O          -2.49677427548250   -0.92882960486474   -0.35945309312042
H          -2.48913803266786   -1.43813149296875   -1.19319058282281
H           1.03974451155614    0.16078324997794   -0.84003464020179
O          -1.57971232661192   -2.20222277148896   -2.50370501003199
H          -1.32429640169473   -3.12687800561562   -2.46798008422060
H          -0.84272058528500   -1.69098638761729   -2.12281116068379
O           0.05234873252910    2.75313212810810   -0.42864495506300
H          -0.40506340462039    2.30098516431678    0.30703297674275
H          -0.54558260356337    2.56501393614460   -1.17385923077769
O           2.51127692640886    0.54576453085632    1.65060634157165
H           2.32395350115672    1.33464674181210    2.16383834305860
H           1.80717176702055   -0.14014046956769    1.91100260306353
O           1.76424434139946    0.91166128580399   -0.72473552024522
H           1.18911705781812    1.77413865257587   -0.66353225429924
H           2.17317504230805    0.75950967327566    0.23270670724827
N           0.51532672941047   -1.06462284610215    2.11054827760523
H           0.21906924381522   -1.38862782179432    3.02233222448678
H           0.55809839900584   -1.86378190754066    1.49050120320545
H          -0.21175218884571   -0.44734124730541    1.73928304371941
