    23
        -45.37892895  Gyration_radius:  2.3014458421 Dipole_moment: 3.018
 S          -1.10376096974042   -0.03311529875869    1.01118796384063
O          -0.05863006851696   -1.01212713106467    0.62913726391186
O          -2.04408389432698    0.16026245736360   -0.06173633901204
O          -0.47405186717612    1.20433673971024    1.45336003192840
O          -1.87497227602293   -0.64893636984035    2.21820821213222
H          -1.16542126766325   -0.88498926755699    2.84599192388957
H           0.35360502065342    1.82463216647831    0.32242342065911
O          -0.21109561353996   -1.33212536273225   -2.04022160675613
H          -0.24982509512883   -1.26866438607070   -1.06338564317639
H          -0.97965461049227   -1.84627967903039   -2.29288811720350
O           2.18799626974240   -0.28443679842854   -0.68091158342749
H           1.50827413283429   -0.62000370948163   -0.06312992333729
H           1.99907340965623   -0.73241905563851   -1.51161918262064
O          -1.00412740703025    1.26834660261917   -2.23790348827663
H          -1.61686760745977    1.02997248589172   -1.51107435441744
H          -0.64807568623798    0.39999563091822   -2.50450600298714
O           0.44050641981718   -1.52095805725603    3.16898580081066
H           0.51222028406798   -1.40044841478627    2.20213673406619
H           0.52133565780646   -2.46247545344988    3.33718103191823
N           0.87610264926798    2.03214440514329   -0.58813956118180
H           1.59779131947939    1.27502652695075   -0.68165140760645
H           1.28137056663224    2.96115308226076   -0.58856380056501
H           0.15229063340631    1.89110887675428   -1.36288139260437
