    23
        -45.36204593  Gyration_radius:  2.34752947199 Dipole_moment: 2.931
 S          -0.20843503232312    0.14751077970479   -1.28986671005849
O          -0.98669558609226   -1.04041209961978   -1.15453129216195
O           1.20976939394512   -0.01237229216961   -1.00595464344681
O          -0.75050099939390    1.26334618400687   -0.42085813542170
O          -0.36348319755087    0.66957000734963   -2.73779801189084
H           0.38293694627544    1.29860362774804   -2.89418390219616
H          -0.09109727084798    1.39814299101831    0.44606446189854
O           1.94117895729668    1.88784280920714   -2.69082783319569
H           2.00488822059616    1.23615756626582   -1.96809753617608
H           2.58394879599831    1.63438730474112   -3.35765670477298
O          -0.01086324008324   -0.71696912655810    2.63367683586240
H           0.41616477682402   -1.39856632017281    2.07763911418362
H          -0.95773349475927   -0.71931850951017    2.35186121966235
O           0.91735475013277   -2.22918918714043    0.57292088977301
H           0.11267881548855   -2.53425643538302    0.14325544219547
H           1.24292809872792   -1.51959733184978   -0.00024624912120
O           0.82232229791427    1.37646628036181    1.46307969571050
H           0.50160757831775    0.59178388094606    2.05066311980990
H           1.62372034564365    1.06690350311197    1.02833257872935
N          -2.40297867775880   -0.63561082576607    1.38232942349354
H          -2.72147006747530    0.32496884031259    1.34334868133774
H          -3.20676035644246   -1.22091960604795    1.57353075272100
H          -2.05948104443155   -0.86847203055590    0.45331880306293
