    23
        -45.36204593  Gyration_radius:  2.34754575612 Dipole_moment: 2.932
 S           1.15045220060692    0.52355603577184    0.36308593916676
O           1.14464727063087   -0.91659967307790    0.57110693667886
O           0.35741797195410    1.26788790550397    1.28628460683922
O           0.74021537566463    0.80489384327971   -1.06754496017461
O           2.61001759283425    1.02741336443248    0.45724051461908
H           3.17769962516744    0.33121910921608    0.04459515498116
H           0.18039035096672   -0.05449323262816   -1.45796076834200
O          -2.62066909563927   -0.63769951748653   -0.41951214395110
H          -2.58174727969703    0.34945332200746   -0.42204945492750
H          -2.32711828451061   -0.89610584850755    0.47667811016800
O          -0.52203746927461   -1.19409179244904   -1.73593688479051
H          -1.44131909490014   -1.01493985333148   -1.30385867551079
H          -0.09543589884765   -1.85346226700420   -1.17897554056312
O           3.59048579966578   -1.24030128877328   -0.37614029119841
H           2.69331666925579   -1.47012412486785   -0.07056186915824
H           4.21050851714607   -1.68917698716102    0.20362735323459
O          -1.24659333618346   -0.98409051173341    1.90145753825682
H          -0.37069353946375   -1.16993022522181    1.53218907388768
H          -1.17470812325391   -0.09079261714347    2.25079777411049
N          -2.01166592445383    1.99024557186539   -0.28575783733174
H          -1.21821198633696    1.89674806562018    0.34429190678700
H          -2.60416738495944    2.73185815062347    0.06666420735888
H          -1.64078396637094    2.28853257106281   -1.17972071014450
