    23
        -45.37644021  Gyration_radius:  2.30470161346 Dipole_moment: 3.382
 S           1.37371216210637    0.24793852944892   -0.85778868464774
O           1.51705916481287    0.51164010395399    0.56455381612763
O           0.02911792910864    0.61259174618964   -1.31430990626514
O           1.76212899138925   -1.07888234214435   -1.26276515566387
O           2.36928874437122    1.22983544206769   -1.60665750415414
H           2.93384043756815    0.60831208660103   -2.05348583475797
H           0.63843856028184   -2.23444575422668   -0.54611213634077
O          -1.76374284883950   -1.27419125969991   -1.92521858589303
H          -1.66230812619120   -1.59915304858480   -2.82105084353563
H          -1.10773090332924   -0.55704329468975   -1.81821917141361
O          -0.23252609548016   -1.03020256427219    1.94942173713209
H           0.60094170374494   -0.58559769795091    1.71589416845941
H          -1.14287828248761    0.05977757989972    1.36723107314556
O           0.37595296140430    2.62901264823879    1.68361121496929
H           0.91971515635444    1.94867342659899    1.22699080639038
H           0.76484267567270    2.73663126066009    2.55315502810274
O          -0.15906129876066   -2.61633774805210   -0.13697687801802
H          -0.27917236834106   -1.78669031605557    1.30999264853212
H          -0.89273278469782   -2.34722354939897   -0.71693445086591
N          -1.48380576879593    0.92811692093338    0.81492352888236
H          -0.99799151367308    0.85928855121742   -0.11873736200512
H          -1.07181049773859    1.76322488155669    1.27854694677057
H          -2.49127800848014    0.97472441770634    0.71393556504566
