    23
        -45.36099711  Gyration_radius:  2.2813418474 Dipole_moment: 4.237
 S          -0.41448461487349    1.28681502550449    0.82369668692517
O           0.36084509313535    0.12340070890974    1.24470846200762
O          -1.46869415226629    1.62686016635403    1.71744437840899
O          -0.96439555596456    1.01373554623792   -0.58478411460541
O           0.54746472969749    2.44875807101723    0.59881370203159
H           1.12535594211904    2.16563885258841   -0.21404975683127
H          -1.87528789288017    0.48209485325198   -0.46182756384902
O           0.96184630110369   -1.03480706710887   -1.75539690983199
H           1.72983747128426   -1.25665803759892   -1.21839484957033
H           0.19213667413328   -1.37023728858126   -1.27697617696827
O          -0.77090525270987   -2.08642578210570    0.32422306506763
H          -0.36498850631493   -1.29596019824588    0.73920557105684
H          -0.36634836053895   -2.84779723120051    0.74464774788048
O           1.90623921291674    1.49951166452010   -1.29800665640611
H           1.32069786010325    0.83699524270177   -1.71413135559605
H           2.54569228004279    0.95856435808677   -0.79746423415016
O           2.84429505891996   -0.36905889541524    0.44681508333009
H           3.45604853615896   -0.24413679727773    1.17339923753758
H           1.94534537529284   -0.22410904964635    0.81457617382565
N          -3.02105277832896   -0.29236225246897    0.04464838881520
H          -3.16368396533333    0.14025492870317    0.94926438279893
H          -2.63436255141470   -1.22321860258453    0.16560066305077
H          -3.89160088428257   -0.33785820564130   -0.46601192493061
