    23
        -45.36893098  Gyration_radius:  2.29150788892 Dipole_moment: 5.439
 S          -0.65577759469503   -0.55707117677179   -1.27614667300147
O          -1.10031582209772   -0.37821052720876    0.12449211238699
O           0.26909711853540   -1.65348523031174   -1.39336092766293
O          -0.11844528270744    0.70366097191817   -1.77870126416677
O          -1.92365596670591   -0.90533724969513   -2.11173746388640
H          -2.55568168216910   -0.20198085841896   -1.87119990007048
H           1.12585467496763    1.20319717532517   -1.15667690685831
O           1.91979130161414    1.38191339004736   -0.51522463306235
H           1.40631529885012    1.54130406376164    0.42037336013498
H           2.34801799623233    0.43414205282083   -0.41762147547804
O           2.55188645314730   -1.03283076124387   -0.22878310473256
H           1.88282346637087   -1.38809603965300   -0.85374392458513
H           2.16027469251973   -1.24199314653128    0.64365436038890
O           0.72555236758599   -1.58804673967104    1.68064789808697
H           0.61972410922102   -2.53969118761078    1.62707532538104
H           0.01270459090996   -1.21569947879124    1.12159073926846
O          -3.31068678743765    0.81343734131224   -0.63664054440391
H          -2.52997939384304    0.48749396881310   -0.14479671997657
H          -4.08203014525829    0.41365603524630   -0.22866603555304
N           0.50239233696691    1.48650414214176    1.57121277811656
H           0.13339130876445    2.35397102652510    1.93707611501962
H           0.87834504387219    0.93595366972856    2.33388695030811
H          -0.25959806464449    0.94720855826872    1.15328993434742
