    23
        -45.36237635  Gyration_radius:  2.41785340557 Dipole_moment: 3.467
 S          -0.81871079574296    0.45702897918977   -1.45790481708710
O           0.03424912654295   -0.54646361562401   -2.02689125187986
O          -0.13692257059320    1.63590153034082   -0.98242503794033
O          -1.66200196900192   -0.12005343540179   -0.33370922533798
O          -1.87528288058181    0.87003448246762   -2.51200737210865
H          -2.38380385383641    1.57521003427769   -2.04581420861991
H          -1.18207074457177   -0.90136462291542    0.31118517152933
O           1.47407795782211   -2.23206136298507   -0.61356289271215
H           1.02772209076140   -1.61343074983537   -1.23303779106077
H           1.51718840201305   -3.07599444040947   -1.06740276647199
O          -0.54163468512925   -1.78089939869814    1.08182509526976
H          -0.17074553176670   -1.22304287262293    1.82418967715014
H           0.23625800204033   -2.05717720301638    0.54084443669826
O           0.69462455188823   -0.23542607438893    2.78428019044311
H           1.22577787094971    0.18750142941498    2.05016714166131
H           1.32321496793453   -0.66980748270505    3.36315840043466
O          -2.62963843786186    2.56038847697320   -0.67182942933543
H          -2.94623830176876    1.97740186283803    0.02440413978468
H          -1.66360333435603    2.59668027101541   -0.57150940312009
N           2.02673731295555    0.59372788695673    0.64191022209838
H           1.31893530086098    1.05111558091011    0.06892909488741
H           2.29841558809720   -0.25430234954412    0.15649142330259
H           2.83345193334950    1.20503309378092    0.66870920242910
