    23
        -45.38060377  Gyration_radius:  2.25699147206 Dipole_moment: 4.454
 S          -1.22874775280158    0.93706440138168   -1.10383340807465
O          -0.29486391693737    1.66804597984066   -0.24253306711623
O          -1.83920442090653   -0.16804090594994   -0.38540031537106
O          -0.64963731974983    0.56764080634183   -2.37273985393045
O          -2.38884113488522    1.96468353137600   -1.44616796483325
H          -2.41884005728534    1.88943770815020   -2.39363983884553
H           0.63824863129547   -0.56414738698278   -2.19387143224699
O          -0.25857371430082   -2.27597715993367   -0.04515031438944
H          -0.99954696666925   -1.65729723203474   -0.21746161367306
H           0.38090380126525   -1.59351931189607    1.12184866422719
O           2.10528025923311    0.76681185812892    0.14444601831606
H           1.21305093294627    1.15209332842044   -0.06194625216141
H           2.71654820932700    1.50469627582306    0.14909566341075
O           1.33323845665064   -1.13998316734066   -1.81765209807220
H           1.88283320678840   -0.55577113730597   -1.27936578411024
H           0.37487522626003   -2.09071067248973   -0.78109748886334
O          -1.24524834360415    0.77826383603904    2.03444372414723
H          -1.88789844554034    0.27372870668094    1.51225089613135
H          -0.87761600694587    1.38017573812124    1.35484006045026
N           0.78846197957711   -0.89554497160011    1.86226230968581
H           1.16468268436287   -1.36951634956660    2.67492589316948
H          -0.01574036892169   -0.24216571142820    2.11005377182022
H           1.50663508084155   -0.32996816377632    1.37669243032750
