    23
        -45.36669927  Gyration_radius:  2.29114263987 Dipole_moment: 5.003
 S          -1.29939637122992    0.64736993503754   -0.46867991622126
O          -0.06150735318655    1.25534936814856   -0.01318839280678
O          -2.38546826116990    0.74142314998765    0.44856186540219
O          -0.99810194945127   -0.82484975071409   -0.81906713212876
O          -1.68092465303941    1.24279108162256   -1.82122883707355
H          -0.79957393863157    1.41006907085075   -2.30723464495051
H          -0.62078529746693   -1.34908049440370    0.02333180944708
O           0.02504025750286   -1.89081781057126    1.18300579264368
H          -0.41372131634147   -1.37015715316754    1.92011528706709
H           0.92319792544165   -1.52980074612511    1.09179263035307
O           1.47507671758952   -0.88071941231540   -2.17492298364219
H           1.91529069417977   -0.80326811423094   -1.31396734099963
H           0.60001351028221   -1.24181954127866   -1.98683776492654
O           0.67341425164849    1.59401831532542   -2.69054739980172
H           0.97219101271706    2.01816824317345   -1.87942059224779
H           1.05703435779926    0.68073012632334   -2.67511152185136
O           2.05801793529302   -0.20405747435979    0.47443788303649
H           2.74784478096089    0.30590060662739    0.90123898025511
H           1.29470517181072    0.40619424233730    0.33778287798214
N          -1.20502937217395   -0.25108693053378    2.84515631315478
H          -1.74767509214725    0.18904404287296    2.10085703498293
H          -0.67048897018698    0.47763642669949    3.30134827736412
H          -1.85915406013589   -0.62303719128687    3.52257777488790
