    23
        -45.36374408  Gyration_radius:  2.27763657938 Dipole_moment: 1.278
 S          -1.76109989247502   -0.09928014458520   -0.94391127195733
O          -1.76339336732717    0.45641188070940    0.39671061482517
O          -0.88795889127519   -1.25292980215056   -1.05698302588025
O          -1.46380427686906    0.91489308505319   -1.95738281369546
O          -3.22920093630848   -0.57426828583917   -1.26950197764522
H          -3.45414641915564   -0.04469011768802   -2.02767207514426
H          -0.11523126509285    1.51206495386914   -1.84737923959727
O          -0.74795466994170   -1.74422468762769    1.60042997551375
H          -1.29991133349710   -0.94948560200416    1.58561869651836
H          -0.75057832306257   -2.02202231813784    0.67344065953005
O           1.64969533694215   -0.56364403362865   -1.10492890684557
H           0.76061889139999   -0.98048815019542   -1.18309042311932
H           1.85203395114920   -0.55849761861629   -0.15163875653562
O           0.43822631092288    1.80170970208391    0.90668731196603
H           1.00804490675305    1.08946815946038    1.24982648365674
H          -0.46525115036633    1.41297580061964    0.85247073438587
O           0.85111946930937    1.76041227116941   -1.55732578381884
H           0.74139580457532    1.97930364137701   -0.53472834868763
H           1.33200140453898    0.82624286688207   -1.51532312032001
N           1.82669770650857   -0.54982194152038    1.74658656200485
H           0.94192105391138   -1.06995234867622    1.82535083130187
H           1.97477337102658   -0.09879710281408    2.64389756285129
H           2.56200230833372   -1.24538021774028    1.66884631069279
