    23
        -45.36427690  Gyration_radius:  2.31931327487 Dipole_moment: 3.133
 S           0.98909630100272   -1.15785452263049   -0.07554003113364
O           1.18061717007298   -2.13291174918399   -1.11932986475516
O          -0.30051401906461   -1.27388004085981    0.60209958890109
O           1.25487843787815    0.21214604677789   -0.47110983221882
O           2.08323530608841   -1.52052026656547    1.04002136302065
H           2.46488607062764   -2.32276350106689    0.69692521729999
H           0.55566083588648    1.65608681683372    0.10936400159707
O           0.16644493892066   -0.44294680173562   -2.89228638348039
H           0.48445386498565   -1.22833362612258   -2.40533620175666
H           0.73185121997677    0.26595408654864   -2.56717804824838
O          -2.25891714388272    0.28029851485092   -2.18416918723719
H          -2.84203894184647   -0.44341566065358   -2.41968176494488
H          -1.35739706061523    0.03251248872705   -2.52311323157606
O          -0.04715866296831    2.18686214934473    0.67594142098435
H          -1.21025247440359    1.41584397916370    0.46834342866344
H           0.21567961125335    1.89419133488095    1.58483746551119
O          -1.91931417296382    0.60643108236942    0.32235806535652
H          -1.32029840781275   -0.22008385978499    0.49952965479747
H          -2.13245378945766    0.55320459144214   -0.67772655699263
N           0.73391873931896    0.64476409257119    2.70742824233461
H           1.38767647827003    0.84685415322591    3.45423053377362
H           1.18809326635598    0.00521013128985    2.06371221149523
H          -0.04814756820666    0.14235053115171    3.11067989875317
