    23
        -45.36427665  Gyration_radius:  2.31935784429 Dipole_moment: 3.135
 S          -1.18464699560923   -0.95792931762748   -0.06801717300260
O          -1.35259016359118   -2.25384697296752    0.53963023300002
O          -0.14425405520770   -0.92453164949681   -1.09383504136750
O          -1.03271533635535    0.13602481405276    0.87223686756374
O          -2.55654068145770   -0.68464939350031   -0.85320020504280
H          -3.02535651880060   -1.50510415345396   -0.73476451125311
H          -0.17264341050947    1.59764407397667    0.69222531254425
O           0.40056781906692   -1.60389684619087    2.41919410096010
H          -0.19187762844591   -2.06649972849329    1.79464096389595
H          -0.04622495798586   -0.76410406823925    2.57092899232398
O           0.39052216410102    2.24524843023093    0.21292526631737
H          -0.13185017782956    2.39776307692658   -0.61455404674732
H           1.36249789736379    1.33098724124697   -0.24448331576424
O           2.70046934944027   -0.93500151650940    1.33754978444192
H           3.13886054587567   -1.75253769693260    1.09533050529203
H           1.86767010978996   -1.19677470737001    1.81396851304965
O           1.88182333773679    0.46032546708254   -0.63397984745008
H           2.29959583992218   -0.03596825074539    0.15822288464270
H           1.08553010975617   -0.13833671008278   -0.91797064042322
N          -1.16273870426547    1.81074136359506   -1.91173262924303
H          -0.62852867072116    1.44168881508848   -2.68960569826505
H          -1.90554950823954    2.38406883555715   -2.29318497144355
H          -1.59202037371025    1.01468890437317   -1.45152533357661
