    23
        -45.36483865  Gyration_radius:  2.29276225851 Dipole_moment: 3.359
 S           0.00558361692099    0.76874565527787    1.33408543701039
O          -1.04797570103732    1.24475407636424    2.17715319998505
O           0.04855854185507    1.37716161737308    0.02255906108716
O          -0.15133649300949   -0.77415315960614    1.13892085554552
O           1.35149982096198    0.87662123458683    2.00745457394246
H           2.07712795289645    0.83266372614261    1.22530808415874
H          -0.99706237824317   -0.94301550417654    0.63441969095464
O          -2.77658230951266    1.61221550478055    0.17919007212209
H          -2.33265442636232    1.63533892886905    1.04831085496947
H          -2.17181589034858    2.06425376129453   -0.41704409500481
O          -0.22874351151789   -0.43747389312990   -1.99708058090796
H          -1.07047039442602   -0.83786192883558   -1.75882021444832
H          -0.11985445631905    0.31475834237377   -1.39159852567281
O           2.81544715564174    0.77071814595103    0.01450520159935
H           2.65039043433886   -0.18342803321108   -0.31161984356740
H           2.26675620992123    1.33077677055577   -0.54560930941253
O          -2.39948108993429   -0.95579431448152   -0.15334030814667
H          -2.65730603385487    0.00667925283115   -0.11302283351040
H          -3.07702629260123   -1.43499530708423    0.32845028103961
N           2.09792325449959   -1.60183739432712   -0.78446583147475
H           1.32974151314249   -1.35147676738029   -1.41053635678087
H           1.69032219860282   -2.04778536229879    0.02803993742435
H           2.69695829835151   -2.26686535184576   -1.25525935095777
