    23
        -45.36670011  Gyration_radius:  2.34970840903 Dipole_moment: 4.352
 S          -0.96901292992826    0.82200338263108   -0.45120541333436
O          -0.27230098416227    0.19072512778633   -1.54689516745329
O          -2.15986073732659    1.53615729010368   -0.76899488083976
O          -0.02544414318335    1.72068921164201    0.32487809230210
O          -1.30915003709103   -0.32416275791147    0.56221174064867
H          -1.86178241487729    0.18690671775129    1.26389791161723
H           0.95672855497305    1.25610232445503    0.49401181390995
O           2.45447349026359    0.12568645741766   -1.94675870098070
H           2.49071526765567   -0.83038849445259   -2.05946534222772
H           1.52105801847588    0.35911201902418   -2.06935835749467
O           0.78249228165294   -2.27307650876736   -1.67063373838628
H           0.20193303114894   -2.91205263650823   -2.08572949161709
H           0.31016949071338   -1.41631494388888   -1.68607552682838
O           1.02773572679116   -1.79177610835970    1.01339388565172
H           1.11165664767963   -2.18087795260626    0.12465854854985
H           0.11806825725834   -1.46713012972341    1.05898213577284
O           2.13266789652598    0.57440401624209    0.64675787492599
H           1.85318866436645   -0.33998088834998    0.91745758797813
H           2.46259489097588    0.48740176629382   -0.28213411909510
N          -2.59761874147769    1.33868363649994    1.99165598383057
H          -3.45727186001924    1.19898962768404    2.50646898332444
H          -2.79766759589912    1.82520167308536    1.12048034184250
H          -1.97337275461414    1.91369714988473    2.54239585787178
