    23
        -45.37758447  Gyration_radius:  2.3146833153 Dipole_moment: 5.936
 S           0.32519939183741    1.62905413370236    0.59372743532691
O           1.05552626516329    0.35240099246005    0.72241818061375
O          -0.12495627088610    2.11549159817957    1.86413254307929
O          -0.77860596455699    1.43987492021444   -0.37093140223087
O           1.30903707893289    2.65451912156489   -0.04008794286411
H           1.37123974709499    2.38666215130184   -0.98884539146036
H          -1.54962770772327    0.21067844500088    0.08711099828383
O           0.95005550646135    1.55302705023695   -2.40002240121820
H           0.06104874567391    1.54580188546366   -2.00881576815699
H           1.25130197505013    0.63216423211171   -2.34703257038502
O          -0.56565201937320   -2.60322624331565   -0.80910381937835
H           0.16519174307719   -2.05322593229954   -1.16863656563545
H          -0.15359580241733   -3.27120353265506   -0.25782587077271
O          -0.48685348429060   -0.39555828721400    2.74251800464219
H           0.31254818570219   -0.38024070226155    2.18275314351459
H          -0.60130021942047    0.54933302360444    2.93316245009616
O           1.51144906438359   -0.99314931612619   -1.40202953252337
H           1.35434185161701   -0.46044447470905   -0.56783597648224
H           2.41862372812078   -1.29921686998588   -1.35064031532116
N          -1.90799185156541   -0.69690599366537    0.53495931579640
H          -1.49746740177742   -0.68734034752155    1.51411934188089
H          -1.49796240207539   -1.49890989282851   -0.00451329163074
H          -2.92155014901881   -0.72958597126961    0.54141944482232
