    23
        -45.37652375  Gyration_radius:  2.29498789431 Dipole_moment: 5.124
 S           0.30746549207372   -1.70082050892655    0.92520288947095
O          -0.72356584486006   -1.60748367282821   -0.10691869458237
O           0.30023749098429   -0.51494075579699    1.76207074056811
O           1.61117269780905   -2.03510713774652    0.39827399770997
O          -0.09491932913754   -2.92819521647067    1.84779346426231
H           0.65638912237669   -3.49087822897091    1.69611376139390
H           2.24767530102221   -0.71422340260288   -0.48350185694921
O          -2.62069647195925    0.10221165717119    0.42658229986511
H          -1.90939948192753   -0.58388366496877    0.36971848123728
H          -3.39509719736086   -0.29783968906577    0.02670974811722
O           0.03602740037137   -0.12186253362196   -2.18861481660516
H          -0.56106691287813    1.06692435058864   -1.49717327448349
H          -0.27570979700061   -0.82926582612257   -1.58612076016214
O           1.05901549830931    1.80058480569446    0.98469809270857
H           0.78940590478269    0.89432225145185    1.31219600335184
H           1.21502756830321    2.32083208804809    1.77428611333425
O           2.35833947805046    0.13063481148130   -0.96558534769645
H           0.99521520188861   -0.03039673359705   -1.96677301268356
H           2.21039897929761    0.82600169321941   -0.31326692229780
N          -0.96743095526025    1.79540560658299   -0.78867456746398
H          -1.29146954007212    2.64195215238214   -1.24115075469020
H          -0.20731034544477    1.98765564201408   -0.09915799419480
H          -1.73970428936566    1.28837231208407   -0.28670758020850
