    23
        -45.36033536  Gyration_radius:  2.39621872411 Dipole_moment: 2.393
 S          -0.25367922557861    1.50098922943812    0.30485634067377
O           0.82726235184863    0.66528410631229    0.77963512486793
O          -1.27808900711061    1.80541562054322    1.24296221530519
O          -0.87506263131047    0.78463348048492   -0.93229768884769
O           0.31394464597487    2.79323394007535   -0.29007138413058
H           1.20427101039439    2.53840304525892   -0.71206356557141
H          -0.49739070527042   -0.15541200510814   -0.95790073021466
O           2.45459841984887    1.74442747225857   -1.15676307824543
H           2.47913768763928    1.18778660650558   -0.36822077387844
H           2.18712035207815    1.15593440530044   -1.89784694929598
O           1.31956694774747    0.00700182410998   -2.87357890227107
H           1.09747354350222   -0.76596846968742   -2.33527406764446
H           0.48530743460512    0.39171574026193   -3.15273196877874
O          -1.63698946596640   -2.56322103001715    0.66658004638820
H          -1.51141535944961   -1.95688095848321    1.44946089438671
H          -2.51900585636618   -2.39348580457059    0.33229122271392
O           0.27486914744087   -1.48113348512488   -0.74433671425310
H          -0.40990875558199   -2.04725060415304   -0.29440151389216
H           0.78378976477199   -1.07603671130884   -0.02473661807015
N          -1.18958214924925   -0.74995485982343    2.57408294981264
H          -1.64831869113674   -0.81082009022506    3.47560015160898
H          -1.41783927243589    0.15805982911882    2.17249281169116
H          -0.19006017640805   -0.73272126117708    2.74226218765279
