    23
        -45.36033507  Gyration_radius:  2.39576067576 Dipole_moment: 2.382
 S           0.64793063632311    1.07745151490043    0.90931886339879
O          -0.00999034257546    1.26466416515056   -0.36509925161557
O           2.06785725348350    1.15473952050715    0.90626903925432
O           0.20189628568476   -0.31338038474094    1.45329085405641
O           0.07088577545428    2.05436499709460    1.93823569335098
H          -0.91155132832061    2.16521468583031    1.69735063567159
H          -0.26238374295275   -0.79927502416550    0.69476663068328
O          -2.27391678108523    2.07053561524168    0.97085441299435
H          -2.64727023605845    1.17863493035386    1.14999147440341
H          -1.88806361205671    2.02684192425549    0.08682680156804
O          -0.93872438967920   -1.24691425007888   -0.62477225054329
H          -0.23616586727842   -1.82610718284351   -1.02820762577277
H          -0.79381532395382   -0.36673885121307   -1.00570058477004
O          -2.81631626041024   -0.54333712959858    1.33123167466444
H          -2.29733145953133   -0.83602659645356    2.08417083506827
H          -2.44437744033672   -0.98494407753231    0.55463573585591
O           1.20826651402054   -2.43622985552491   -1.51538530550139
H           1.71546897966136   -1.58857822512787   -1.65830481323449
H           1.69012433384963   -2.93010747481406   -0.85017460875284
N           2.39502588998316   -0.05130532559049   -1.69113385497695
H           1.74801467970752    0.57072375896374   -2.16228560605773
H           3.29888110937361    0.05665597944492   -2.13644436160810
H           2.47555532677437    0.30311729594382   -0.73943439817605
