    23
        -45.37846659  Gyration_radius:  2.32525700704 Dipole_moment: 4.053
 S          -0.07340419364110    1.49555544177826    1.23833159593311
O           0.20925883961104    1.73826431136806   -0.16541552918016
O           1.07891725266034    0.98442787307075    1.94885400229315
O          -1.25662039106314    0.65557916844356    1.41950579055015
O          -0.47480708529651    2.88236773622126    1.88734301102016
H          -1.35967970639560    2.69153508281871    2.18060317602814
H          -1.05849271579251   -0.77361597235165    0.83035957551703
O          -0.55992929688032   -1.27629545469726   -2.11165104192928
H          -1.10006579608871   -0.45971369136851   -2.19755805483824
H           0.36900519434094   -0.94822882454999   -2.06355784925733
O           1.73465619683194   -0.16185127742710   -1.35843441079022
H           2.04875127438574   -0.65959279611277   -0.59285723782850
H           1.31389336630605    0.63733445251291   -0.99136638354900
O          -1.66481725775779    1.15572249547871   -1.94033303807134
H          -1.03582674359725    1.41614877369383   -1.23205672095979
H          -1.50721132292027    1.76412442929597   -2.66456252363380
O           1.83879291766545   -1.37183581967034    1.21788411930695
H           1.60196891994324   -0.45733098736527    1.53084779275169
H           2.51564204382082   -1.68873370271142    1.81773891366214
N          -0.74755901672998   -1.70568627260639    0.42677045962090
H          -1.35910384774357   -2.45415887236956    0.73264916372163
H           0.22437261335969   -1.85357691270616    0.75063276099092
H          -0.73774122501831   -1.61043920074698   -0.66372756136261
