    23
        -45.37675813  Gyration_radius:  2.29626588156 Dipole_moment: 6.057
 S          -0.46817251892107    0.05458917070037   -1.33032957938643
O          -1.64370509135540    0.00095309112034   -0.47130108381470
O           0.43333769327492   -1.06842276829643   -1.04656788571385
O           0.21958614916336    1.32901332330177   -1.23675111148350
O          -0.93538254512353   -0.15016405353580   -2.80794993566167
H          -1.52540076324288    0.61776007748121   -2.93744115076099
H           0.70193946293250    1.61137494591401    0.40168109016487
O           2.61784589542302   -0.61091398799953    0.43191665630090
H           3.39762498811815   -0.29818689607961   -0.02911085308990
H           1.92267213590240   -0.71668846873418   -0.25115475952543
O          -2.22636045139792    2.06262243594579   -2.17115997034931
H          -2.55156552708937    1.54843516541656   -1.42037131592757
H          -1.35032331361289    2.36869174368424   -1.89795384105873
O           0.98684751631638    1.47276024174330    1.32623492224525
H           1.73241825612896    0.85702810430876    1.25587497725808
H          -0.34494186829981    0.69519726286419    2.02701323360709
O          -1.05642302884940    0.00826572807043    2.09476467914274
H          -1.50141628330122    0.05907333154350    1.21828742350337
H          -0.29800806632034   -1.20222022069638    1.84467381527287
N           0.32560234035837   -2.01007728702725    1.38988758971747
H           1.30378802931599   -1.88699591124478    1.65217220750521
H           0.26667352275728   -1.79901669298807    0.35113481332908
H          -0.00663654217670   -2.94307831549675    1.60645009871731
