    23
        -45.37913489  Gyration_radius:  2.31286582412 Dipole_moment: 3.921
 S           1.24242973781867   -0.39120346206203    0.68082570264520
O           1.41024015724611   -0.85495995263093   -0.69500651337743
O           0.10943085307795   -1.03113939741710    1.33343397871534
O           1.13262047315003    1.06290899941980    0.72885391509833
O           2.51475376526568   -0.80925087822104    1.48571289220756
H           3.22557504925322   -0.34366734896362    1.00492999557251
H          -0.17728736411733    1.81357890958506   -0.02385610577007
O          -2.19760513254647   -1.79051560639328   -0.29226982547523
H          -1.82377716555626   -1.34481739131593   -1.07460096617075
H          -1.42662941777573   -2.07777422538286    0.21442167724301
O           3.59619126117632    0.73344688218676   -0.37323445858662
H           2.93952383679049    1.36887882600307   -0.05584125396477
H           3.09995289527863    0.14081925750195   -0.95478716602498
O          -1.05738153193980    1.95016552151011   -0.44292733477568
H          -1.85090692408357    1.12435924950200    0.62451035331586
H          -1.05199160331401    1.35762638033175   -1.21327299700064
O          -0.72435926796355   -0.28080866650490   -2.04053814365299
H           0.10919531758197   -0.51838021801845   -1.55254663953436
H          -0.54599608425001   -0.45392901638894   -2.96659231204399
N          -2.11477137557727    0.31571984104459    1.27946358729233
H          -2.68463931744234    0.59535015310066    2.06898383358300
H          -1.18908285025843   -0.11215090259017    1.56341087620618
H          -2.53548531181508   -0.45425695429348    0.70092689449942
