    23
        -45.35526634  Gyration_radius:  2.34521782248 Dipole_moment: 4.988
 S           1.62563213302856    0.88120412741209    0.93753855105601
O           0.75190436901166    1.73000589320375    1.65957549946067
O           1.76918650127521    1.10008587945099   -0.47897664110114
O           1.26751566285689   -0.58577919074986    1.18145845305383
O           3.06871292661463    1.01353047165420    1.55762153869552
H           3.69650073519953    0.86504740446292    0.85396082819356
H           1.37318369686666   -1.09320193429678    0.26543516776336
O           1.48864344674754   -1.51111088454088   -1.11390838770932
H           0.53532814708411   -1.62352277912715   -1.38478647240061
H           1.75122119230376   -0.64695042135267   -1.46159105843559
O          -0.78047800221658    1.19345968166313   -1.59817248471964
H          -1.32414244200454    1.48261803271921   -0.82211629467365
H           0.13644917425438    1.35089082192896   -1.33526677682298
O          -1.04691983818974   -1.38601847319101   -1.74171824617682
H          -1.38393020242339   -1.62252894075474   -2.60696635399575
H          -1.03286914550694   -0.38247690580298   -1.71371612287972
O          -1.90176417261582    1.67872998701319    0.74423555617021
H          -1.10321532764951    1.93428477401164    1.22364219920932
H          -2.05392897149684    0.73808909319681    0.98355619261158
N          -1.80006042935718   -1.02198803532411    1.20746922403669
H          -0.87580659031000   -1.07541889185963    1.61948774613229
H          -1.73886299083589   -1.41230083570379    0.27297262269408
H          -2.42229990264046   -1.60664889401588    1.75026524983697
