    23
        -45.35464283  Gyration_radius:  2.43745749861 Dipole_moment: 3.267
 S           0.62019200841527    2.04005575620570   -0.28763777332867
O           1.79201995699318    1.23821981236712   -0.39079670443901
O          -0.46820897069983    1.50068079010591    0.48033506934921
O           0.12876719326795    2.45877231712140   -1.67264347473436
O           1.01029959631148    3.41516990971435    0.35435058881509
H           0.20086204265570    3.86544639665427    0.58799018395307
H           0.32876395354105    1.65748001109073   -2.31660359271561
O           0.67073323702562    0.37224072407864   -2.92017583165134
H           0.13984245280461   -0.23024935004104   -2.32088535463224
H           1.59346793448245    0.22166123744299   -2.69182878552968
O          -0.54417283516747   -0.85117212007483   -0.97920089050503
H           0.24118412633420   -1.24086144928351   -0.50429122741551
H          -0.78525330289032   -0.07935577382177   -0.44797927871846
O          -0.06851494364103   -0.56709494166038    2.39107611788664
H          -0.27727358502207    0.25105568466365    1.92335708667688
H          -0.80151494578511   -1.18376651426344    2.17526910210444
O           1.58256613685254   -1.41499631446931    0.45387954412670
H           1.13097575446324   -1.24531978004332    1.31172202297999
H           2.01860793431912   -0.58185740817358    0.23513532947268
N          -1.98587542411228   -2.24523090917111    1.32135669161297
H          -1.75723419450932   -3.21910957531848    1.47513472304485
H          -1.79098401806589   -2.03296016915330    0.34742384021055
H          -2.97925007758575   -2.12880835393865    1.47501262343165
