    23
        -45.35464279  Gyration_radius:  2.43759324705 Dipole_moment: 3.267
 S           1.88379150484841    0.58843762737581   -0.85925070896032
O           1.94240915126179   -0.82211559656264   -0.67550559127193
O           0.98214101700487    1.31550989903394   -0.00825700268909
O           1.61465465107822    0.93126860276629   -2.32384568835496
O           3.31700904726794    1.18193649174015   -0.63861410322516
H           3.23017917851627    2.13135733357695   -0.57893221192094
H           0.97186675243122    0.19059615210424   -2.69157494763127
O          -1.19754659160359   -0.24458841943960   -0.70003840045291
H          -0.62936350237064    0.49135878368289   -0.43227732414156
H          -0.92485020835029   -0.99526693183011   -0.10300623962082
O          -0.04797254885739   -1.97035022205514    0.91050890129391
H           0.80775033314827   -1.89665064593463    0.46951557378238
H           0.00062101578174   -1.33662259189447    1.66196100507333
O           0.04388148181691    0.22795139762911    2.44556768191756
H           0.44788205025524    0.75813630188314    1.74738612221966
H          -0.91690716576045    0.42488742752467    2.39787356785681
O           0.04906372822218   -0.92649018333828   -2.87213256908471
H          -0.60164969421144   -0.71668501836492   -2.13937646647524
H           0.53146143010077   -1.70584964862397   -2.57862810884861
N          -2.63008454193328    0.60372773698018    1.85807126870212
H          -2.56342718111969    0.36436254451809    0.87327070100661
H          -3.09794563703738    1.49787383091566    1.93256483621298
H          -3.21296428047332   -0.09278487168873    2.30471968461181
