    23
        -45.37480705  Gyration_radius:  2.29897224615 Dipole_moment: 5.343
 S          -0.48611485978021    0.81793015881161   -1.15433015877489
O           0.78439243400799    0.06762150895396   -1.09013391390683
O          -0.37428822361253    2.10180690190189   -0.52498344513776
O          -1.55759735452437   -0.01721746667538   -0.60304078472965
O          -0.79290720251387    1.03670988926115   -2.66876287793226
H          -0.96945673165311    0.13083725051589   -2.98548165181401
H          -1.58366932097558   -0.41351560350419    1.07548066261692
O          -1.18834849877339   -0.60365168754408    1.95283918167357
H           0.02598559346237   -1.26482607403461    1.47285446529384
H          -0.82792239961782    0.27686921671455    2.23561351249228
O           2.43233457925742    0.89425052369236    0.84959143269119
H           2.95090337812741    1.67843919701423    0.66357285540233
H           1.89272296769860    0.73356475149247    0.04686825342584
O          -1.58829585996406   -1.50530058630208   -2.73292325917978
H          -1.68026741313995   -1.13701658389325   -1.82744253286134
H          -2.47927016241607   -1.64356379643448   -3.06176351240395
O           0.07316815779886    1.69220995649608    2.09330744707574
H           1.00650374634072    1.47071302514820    1.94580440919900
H          -0.22579423705641    2.03197314744530    1.22840439103777
N           0.94311148697845   -1.56166869281093    0.92098592575280
H           1.01515835372010   -2.56279511319312    0.77768747424080
H           1.76749969404725   -1.18939577526270    1.39121261063612
H           0.86215186257818   -1.03397413779629   -0.00536044479744
