    23
        -45.37201821  Gyration_radius:  2.40587821808 Dipole_moment: 3.837
 S          -1.28547846875065   -1.33153171279802   -0.63337252991837
O          -1.53461083372442   -0.06585353609345    0.06130564638503
O          -1.00943329270810   -2.43087570211716    0.26020369108115
O          -0.30779827241007   -1.17015823709719   -1.68892374557456
O          -2.67026352509231   -1.66457224682224   -1.34553541785491
H          -2.51685622083320   -2.55028451281415   -1.65695584122144
H           1.08496044176406   -0.19769121093403   -1.74749572685843
O           0.46917860005730    2.72606476428714    1.52562897846149
H           0.84779086806382    1.82492544302506    1.54367630867611
H          -0.17968635731948    2.75198385485423    2.23117793546114
O           0.95288232535467    0.09517309621909    1.14176355499470
H           1.28395933513072   -0.79556269712032    1.37751306511607
H           0.03152165464058   -0.04915003380342    0.86345435932763
O           1.34325758123796   -2.53111550852146    1.46578588122739
H           1.19913685958581   -3.01743007544217    2.27925597688784
H           0.50654622690434   -2.60788171481122    0.95618395051266
O           1.67289808140005    0.54819954131559   -1.49524801873464
H           1.87176117233099    0.37801026100181   -0.55913325103705
H           0.52293920306123    1.57474951237594   -1.31040496108272
N          -0.37037587947373    2.05304879930027   -0.93843691674982
H          -0.81434116677510    2.65215117733713   -1.62393092357942
H          -0.10592713015972    2.56059515200184   -0.06335010957457
H          -0.99206120227762    1.24720561664884   -0.64316189591980
