    23
        -45.38014024  Gyration_radius:  2.28551853872 Dipole_moment: 4.799
 S          -0.87124377205952    1.18577994550799    1.17121432418351
O           0.56396970805112    1.00846395427983    1.37035760172415
O          -1.62511729806895    0.02834450913597    1.61851396144594
O          -1.21158598213020    1.58039434980537   -0.18087982011584
O          -1.27520862833706    2.39564916089401    2.10667672059337
H          -2.17208259681267    2.56744456972704    1.83901750925101
H          -1.20632648540852    0.24336556911476   -1.28815221769593
O          -1.09803750924101   -2.24611512943095    0.52544855264636
H          -1.35660798532997   -1.39344427275760    0.96977591072970
H          -1.66050866924924   -2.92379159741177    0.90298705129932
O          -1.03536113216123   -0.57730076289706   -1.78860422912894
H          -1.23487876751576   -1.30164420400576   -1.18253908450258
H           0.64912694969195   -0.52122789982730   -2.16719954580248
O           1.37090111321285    2.06014094544230   -0.97720734080657
H           0.45993324840921    2.25750680129407   -1.22633718863025
H           1.29610841038063    1.82113650494610   -0.03775192924656
O           1.60869685122480   -0.40924506144217   -1.96971428136794
H           1.70134690855949    0.55175883321746   -1.77012943175393
H           1.62061192767216   -1.00037181334650   -0.61378530161207
N           1.44036605550742   -1.29223205709344    0.43520858910976
H           0.61016667968292   -1.91027147463536    0.47122207898198
H           1.17392245224952   -0.40016664017233    0.92970629027741
H           2.25180851166704   -1.72417423033893    0.86217178041783
