    23
        -45.38014075  Gyration_radius:  2.28489695815 Dipole_moment: 4.836
 S          -0.24190533027829    0.06392382983752   -1.86259937972624
O           0.54522389125359    1.14258291438869   -1.27311279013795
O          -1.65746486286031    0.20786735163081   -1.57376751479542
O           0.26004823099316   -1.25367444889882   -1.52735324463962
O          -0.06623704770264    0.22697156263823   -3.42595470803462
H          -0.47975556149467   -0.56221321908667   -3.76047428861555
H          -0.20652408427286   -1.77109028801877    0.06376943933422
O           2.60040317271961   -0.37543523569284   -0.41236820894534
H           2.07596108278997    0.35160346538615   -0.78780075999426
H           2.17836387917443   -1.16097741229401   -0.78184909736122
O          -2.37519131694287    0.24633548412960    0.90215580252268
H          -2.15948318172189    0.22017908256455   -0.06953058720860
H          -3.32695786288478    0.34027508955654    0.96068915229563
O           1.52863886967296   -0.39270375725350    2.03503406554523
H           2.13737508182521   -0.41364045797890    1.25969969602714
H           0.67504385189763    0.77195284292958    1.71636917698920
O          -0.44163317722067   -1.84775588657199    1.00813545871735
H          -1.25682908381865   -1.34248624972078    1.11793651767800
H           0.87535238644105   -1.10668010083696    1.84617594003560
N          -0.00736644070808    1.51835516188358    1.27397974667973
H           0.20998775773126    1.51643105041490    0.24237886810408
H           0.11388892143962    2.44070445133657    1.67633062539611
H          -0.98093920603590    1.17947476965774    1.37215609012157
