    23
        -45.36747479  Gyration_radius:  2.33619390131 Dipole_moment: 2.817
 S           0.18787386865684    1.34593575642909    1.71913922176369
O          -0.25790558513944    1.49616095986501    0.34139886256511
O           1.62396475505399    1.10096295101621    1.80779860912921
O          -0.58668673193716    0.36359989988477    2.44658322782334
O          -0.05953422568489    2.74817658295296    2.40637370427222
H           0.34331189649092    2.63804304149368    3.26193780975397
H          -0.21658163308589   -1.13181547472169    1.71135863301274
O          -0.06145203123016   -1.74834699934259    0.96284397342563
H          -0.78971990553431   -1.53065932687757    0.35057305487868
H           1.29815317143759   -1.29579100386430    0.43093032268310
O           1.19263791420598    0.59990434434751   -1.70875880968965
H           0.53116569041238    0.01064065554165   -2.17693098559087
H           0.66242714404750    1.15699156027734   -1.10241115541864
O          -2.07656273125120   -0.34635841730846   -0.19726638908832
H          -2.72268401937976   -0.32395159765160    0.51144092365669
H          -1.48117682829285    0.41836989876787   -0.02901932728668
O           2.11350848624114   -0.72264551975229    0.16320047097843
H           2.09062618229314    0.02239763986468    0.87335814221535
H           1.81333712296308   -0.18805626524537   -0.74659149599167
N          -0.68004470261996   -1.00731093371537   -2.70065009538763
H          -1.05961849079553   -0.75298643349941   -3.60328387646409
H          -1.40327877502654   -0.85786709515513   -2.00270286694347
H          -0.46176054184484   -1.99539423328069   -2.71932194430029
