    23
        -45.36747492  Gyration_radius:  2.33629198094 Dipole_moment: 2.814
 S          -0.32207782242872   -2.02582843979350    0.77089172126826
O          -1.15614356492569   -1.52473874505603    1.85876100918046
O           0.84573267832222   -1.18635844000607    0.54499491160607
O          -1.07640794224945   -2.26050573786630   -0.44150983145039
O           0.23925433437821   -3.42128939854076    1.25799784648449
H          -0.55080787073987   -3.89361773699867    1.50094228670737
H          -1.71998712425169   -0.73866833527941   -0.86967829707415
O           0.80286247364837   -0.27424399072193   -1.93673532829213
H           0.92471191549771   -0.65819936693073   -1.03936680934208
H           0.64447623333618   -1.02449256181180   -2.51316741070373
O          -1.70235826166871    0.23162872367082   -1.02014822420335
H          -0.85809061756447    0.36064100856507   -1.49254109397796
H          -1.66264936217360    0.79179400758267    0.40138826821777
O          -1.47977835338308    0.91736955345660    1.40926702517508
H          -0.42865304241887    1.22312694436161    1.48347143885673
H          -1.44885273582210   -0.05656696559502    1.74137443161975
O           0.95559148335455    1.32959518850787    1.42066381644227
H           1.15238054134186    0.38961523772456    1.22839007410566
H           1.16640165648967    1.82474043562192    0.57541184575457
N           1.37969770435174    2.43981405401894   -0.95861900253880
H           0.67112574625059    3.08195566424415   -1.29004458806217
H           1.33962999505006    1.60278813585472   -1.53336862159220
H           2.28394192559400    2.87144076496701   -1.09837546819741
