    23
        -45.36755056  Gyration_radius:  2.30759914884 Dipole_moment: 2.995
 S           0.99946322062739    0.31309650550779    1.54950864370312
O          -0.28127373374683    1.00209780450823    1.61094375265712
O           2.09303302199059    1.10574890273619    1.06346765451243
O           0.85477813350269   -0.96151441650529    0.83426200962408
O           1.37412125497710   -0.08190998249555    3.04451847753138
H           2.19683427482397    0.38089936083747    3.16986400500874
H           1.81474974612708   -0.98520035259201   -0.59782367594296
O          -0.21435130163525   -0.26217070965330   -2.44519136498312
H          -0.87524297659879   -1.03500354761718   -1.41963496836833
H          -0.12892680724782    0.62141376268884   -2.01472805410524
O           0.25107759605016    1.82717894653901   -0.86570454939332
H          -0.07174820939630    1.66538977919941    0.03820117846737
H           1.20738504020824    1.87081861120368   -0.75185173507449
O           2.15494150899750   -1.08937090142934   -1.50855521166772
H           0.69374608701308   -0.62275670577478   -2.40609798096578
H           2.72576334583510   -1.85839082837718   -1.49807265341253
O          -1.22346882750178   -1.49005587916181   -0.52142548431956
H          -1.95304205665076   -0.80551881060365   -0.10547390878439
H          -0.41937177231953   -1.39352335307930    0.09365812115460
N          -2.71707313748966    0.24105833266777    0.54479301462613
H          -3.05687602155929    0.95868681565088   -0.08267770318885
H          -1.95624474420210    0.63855679762000    1.10714593748553
H          -3.46827364185425   -0.03953011188408    1.16087450545069
