    23
        -45.36291078  Gyration_radius:  2.34740802817 Dipole_moment: 4.276
 S          -1.12826241661141   -1.76175967272624    0.19699901010724
O          -1.27354938848535   -0.36925495219057    0.64414219973743
O           0.14916277119037   -2.30179592563775    0.61282389688747
O          -1.40584914650220   -1.88744327841070   -1.21736639619429
O          -2.25358773543075   -2.59173671294492    0.94494437320971
H          -2.97936973206663   -2.56402583645029    0.32875602674921
H           0.19551488420217   -1.89891060936299   -2.00606435202714
O           1.14767275892586   -1.89952894182857   -1.78155297879719
H           1.12632761477234   -2.30075022723219   -0.89112412359864
H           1.49405304247889   -0.47679919807607   -1.48181891979550
O          -0.65682429278128    1.49098557517829   -1.10314740507938
H          -0.49438288525747    2.20840465137861   -0.42912561700649
H          -1.09133098754570    0.77396434612015   -0.58325343556556
O           1.16529472729574    0.11028052761128    1.41801064871995
H           1.45742817905100   -0.77708858142321    1.65229561764883
H           0.19474205136944   -0.01209910635533    1.25533359768203
O           1.59359351995341    0.48678944590700   -1.09373225232541
H           0.60945129581198    0.98034595921552   -1.23929607755796
H           1.60843588152798    0.37267688752993   -0.08302634111134
N           0.05184841649523    3.01550663117287    0.97182991578156
H           0.59084619017036    2.30633620783329    1.45749021548171
H          -0.73492609106215    3.25908750782251    1.55993766804387
H           0.63371132249248    3.83681529286651    0.86694474904343
