    23
        -45.35300001  Gyration_radius:  2.4004353724 Dipole_moment: 5.340
 S          -0.87032727197149   -1.49648813048783    0.75722393280001
O          -0.35816482544933   -2.72286476145239    1.24770319448058
O          -0.52454302645867   -0.30362553817035    1.47081976167200
O          -2.43199945196864   -1.58904149046567    0.67690994868728
O          -0.46710336135452   -1.33122487235138   -0.73727284265291
H          -1.03287012471449   -0.58182434758392   -1.06058193181380
H          -2.73639178857253   -0.78086444369332    0.23687603471234
O          -1.10436766881144    2.70459652050462   -0.90210596156956
H          -1.49196235934402    3.34614604273545   -0.30432194670551
H          -0.24722041906106    2.41314431757467   -0.46173036471048
O           2.11545710771272   -1.55452456663427    1.69576940595941
H           1.41353817151402   -2.20982070230333    1.59462068432038
H           1.73263737637208   -0.84699983010993    2.22058751682474
O           0.91573805679542    1.77501648464002    0.40299348146060
H           0.43546160275263    1.13184943961530    0.94708787183421
H           1.54527034717584    1.22522732475587   -0.12431947250891
O          -2.29566674425816    0.44957966321734   -1.11595058481697
H          -2.73087056041533    0.46978015146623   -1.97144725812204
H          -1.86319092617748    1.36188578233574   -1.01060058871860
N           2.39547249102131   -0.11253704425514   -0.83811301426971
H           2.52548595829990   -0.66320099322527    0.01080270030842
H           3.29460399785841   -0.03473606836054   -1.29668017559580
H           1.78101341903328   -0.64947292773526   -1.43827039161945
