    23
        -45.36753025  Gyration_radius:  2.36486791272 Dipole_moment: 6.780
 S          -0.75964636335319   -0.86706622637610   -0.21560216851722
O          -0.33129294229454    0.32005289834640   -0.96237435475529
O          -0.20363883694285   -0.83105914633764    1.14281099301880
O          -0.22174729454714   -2.11609605347379   -0.93340345988384
O          -2.21844966907327   -0.96090926893549   -0.14941594535091
H          -2.56538001345317   -0.16118894016947    1.07527688455467
H           0.44377812498892   -1.81610515069863   -1.64633516303928
O           1.91779927352947    0.72496181107299    0.82015736785221
H           1.19110626407232    0.10391174564447    1.03587106133349
H           1.52328208794146    1.36853489850645    0.22595575175116
O           3.38189337834025   -0.86728121146801   -0.75825313854477
H           2.96247915233157   -0.23084602266878   -0.13426506226028
H           3.51989628288602   -1.67533832262454   -0.26184356809803
O           1.40652947311182   -1.03118230225119   -2.54261284748482
H           0.93766860122401   -0.20815927641863   -2.34218122727903
H           2.24236038217560   -0.99684179278360   -2.01860265099659
O          -1.48524125484381    2.35290638722157    0.21398102299013
H          -2.05144503733676    2.76999633118475   -0.43796014663707
H          -1.00147702342313    1.63769171594567   -0.27267710630977
N          -2.28953393960167    0.48903643906684    1.90406880396335
H          -1.36515766743042    0.05660694043007    2.11687345104885
H          -2.93271073345894    0.51877978545500    2.68731562703058
H          -2.10107226486192    1.41959474135742    1.45321588561574
