    23
        -45.36965423  Gyration_radius:  2.26162806396 Dipole_moment: 3.831
 S          -1.21063998087003   -0.59244455431127    0.03583751852859
O          -0.32815772472815    0.00960945510450    1.04871615749171
O          -0.85273050055572   -1.96469485342889   -0.22404550660511
O          -1.16307745175283    0.23723765655678   -1.18422577026323
O          -2.65368807609159   -0.54242865313640    0.58130569254783
H          -2.80315262551175    0.44278558591930    0.68396780300986
H           0.14723293041792    0.29292995899840   -1.77951683412730
O           1.18460386776722    0.27960204270595   -1.97759030738488
H           1.44669459811004   -0.73786072584397   -1.76533887132455
H           1.55911603055716    0.82549283613924   -1.19581474921790
O           1.91820430195235   -1.36829803253209    1.37879263800575
H           1.03887904429509   -0.92682959616949    1.35626123406253
H           1.82046362120114   -2.11410323303245    1.97243031744458
O           1.57877848552690   -2.05211101041220   -1.19182584202025
H           1.97715188108078   -1.90969861580398   -0.30599177581933
H           0.63508803365557   -2.24503421663068   -0.98032178448810
O           1.77278240100281    1.37503195722648    0.24895243793169
H           2.46662072934949    0.88927646984788    0.70607274186207
H           0.93051131551794    1.02443553884611    0.62571914234467
N          -2.49290183468907    2.05061093157511    0.56010322880431
H          -2.01475335612833    1.92205880594247   -0.32636696898226
H          -1.80097643771158    2.29435937080564    1.25678816695562
H          -3.15604925236198    2.81007288168265    0.47609132128576
