    23
        -45.36427710  Gyration_radius:  2.28836620513 Dipole_moment: 3.488
 S          -0.94681051429421    0.35418953462405   -1.22606092889803
O          -0.81283139570218   -0.08515856091232   -2.57970336069279
O           0.15244786438339    1.14903926310185   -0.72980907240137
O          -1.09516614618082   -0.89201218437519   -0.29290131722013
O          -2.26094951091660    1.07437871947605   -1.00452905466046
H          -2.15413280904776    1.58461928316795   -0.09788347735121
H          -0.25086157559431   -1.43328692993718   -0.35019654619825
O           1.13868841265097   -2.13940227395629   -0.63789163695449
H           1.54635844237719   -1.51681491705296   -1.29826562876791
H           1.00102711248054   -2.96843505412420   -1.10172902904969
O          -1.68080481184370    2.17652594191859    1.15788060818481
H          -1.60655661254912    1.40033146109585    1.78661829126027
H          -0.77807249068806    2.38805440108152    0.89539660400801
O          -1.25074324772085   -0.04136332423506    2.46607114879625
H          -0.26787897240671   -0.07792946930467    2.35250443636689
H          -1.59824403355614   -0.67229713124664    1.82864007704027
O           1.84040501874201   -0.32960380367805   -2.40854765819507
H           0.94743156666051   -0.28229571607353   -2.79591699127613
H           1.92623122561397    0.49392693641340   -1.91704673732960
N           1.32180120136643   -0.05422897094209    1.65919752693775
H           2.11772682668660    0.36928025804438    2.11881004379282
H           1.11558116402677    0.48363281679095    0.82038436193639
H           1.59535326548362   -0.98115025987459    1.35497833068489
