    23
        -45.36484753  Gyration_radius:  2.47445966082 Dipole_moment: 6.305
 S           0.74950092987315   -0.91198833408710    0.17007819505086
O           0.60402237587258    0.38819230912283    0.85278465188223
O           2.13146622471892   -1.32718023095382    0.13712027321263
O           0.18129535280662   -0.78865529346253   -1.19025635039327
O          -0.07807682911608   -1.95665261209542    0.94238333933320
H          -0.99571112405502   -1.98122917014477    0.51600410183608
H           0.75617336805178    0.59681991714828   -1.63550667165791
O          -3.37825920913988    0.41760329618021    0.67108350637040
H          -4.15830565127814    0.12908064838126    1.14841893539408
H          -2.69098612421962    0.58221147098806    1.35370763194983
O          -2.21337243953602   -1.74006141476104   -0.43731292775145
H          -2.70173293197155   -0.95450920841793   -0.10011528493375
H          -1.58533892786606   -1.40363055636162   -1.09486188368939
O          -1.43412208251063    0.71941137607151    2.48899363597265
H          -0.64917426099679    0.51615667493526    1.93307837920896
H          -1.20896063822719    1.50963135374556    2.98230592365272
O           3.65230733741979    0.30225136891331   -1.22024766667033
H           3.19523769824389   -0.33856910562989   -0.61516033836378
H           4.06248930529203   -0.23839159974990   -1.89807727426524
N           1.30774293320917    1.47505474500031   -1.36544497520390
H           1.03683304223810    2.32819120932979   -1.84188571786732
H           2.32904883993989    1.22048456728123   -1.46153975046468
H           1.08792282122402    1.45577856854902   -0.33554975256721
