    23
        -45.35754965  Gyration_radius:  2.36236711202 Dipole_moment: 1.844
 S           0.35720623849597   -1.33547573529157    0.85364613707835
O           1.48487860774251   -0.51894917156819    0.49491035253221
O           0.35284548208389   -2.65204515629554    0.28802864457122
O          -0.95241827919411   -0.59638752166489    0.41936975152956
O           0.20529977360679   -1.40615327794510    2.36014335896783
H          -0.05595845446542   -0.45739604765874    2.72699534112374
H          -1.24299504046444   -0.93546170924409   -0.45306225645542
O          -1.29269652287562   -2.15645829784013   -1.69901060135129
H          -2.07895496180190   -2.70699829514370   -1.71128183773634
H          -0.63726581064952   -2.61067170410317   -1.13218535401687
O          -0.32902231942434    0.90209452220318    3.15402249177436
H          -0.02641482742542    1.43958413601091    2.35177159431898
H           0.26471025943207    1.13524836248339    3.87217225419105
O           0.69745414802078    2.00302759298851    1.07648103570054
H           0.08870866110525    2.19712347242303    0.33060459572052
H           1.16286654401041    1.19157351095405    0.81149008552661
O          -0.64240952241335    2.31232102430837   -1.24664533914945
H          -0.23288866772163    1.51750017049871   -1.66631812096229
H          -0.32731099922311    3.07216190145159   -1.73891761789857
N           0.66709107731547    0.14151885152644   -2.24084030703965
H           1.35832521821112    0.20605074931806   -2.97808685250757
H           0.02922511747077   -0.60764079929679   -2.48395287662268
H           1.14972428818539   -0.13456657811026   -1.38933447929021
