    23
        -45.38014047  Gyration_radius:  2.2853714143 Dipole_moment: 4.821
 S          -0.51752545519502    1.79312151849416   -0.22832413290253
O          -0.40870789861841    1.31477971463198    1.14639937899762
O          -1.69447950228207    1.26326919159556   -0.89336598379114
O           0.69314700362297    1.58753997691572   -0.99734292747681
O          -0.71498438094960    3.35813411014661   -0.11053646715879
H          -0.65290775866861    3.63820587596021   -1.01784615116892
H           0.85835298200310   -0.04565619204540   -1.56166027694470
O           0.85812945141719   -1.01396312000384   -1.68650121360233
H          -0.07068501758426   -1.27367436019358   -1.72839221844941
H           1.61968085057628   -1.64028674775127   -0.26900336222263
O           1.76629295545798   -1.73763338057156    0.70130750948534
H           0.36360524089714   -1.59894904680186    1.14725929013353
H           2.14993835086394   -0.87117481675751    0.97357421786456
O           2.24751342184175    0.85319565113777    1.14191798539791
H           2.32275148440144    1.17013899166858    0.23377167269711
H           1.34595593600780    1.11620992121315    1.39349028161441
O          -1.91491065473657   -1.29857795714938   -1.07901090375721
H          -1.87543733060699   -0.30407452165467   -1.05192974434465
H          -2.72515511974707   -1.51990513611647   -1.54018948794348
N          -0.68134398901751   -1.29788598002479    1.33779350681772
H          -1.25625923016461   -1.55070445398864    0.51451124682841
H          -0.66294830140071   -0.24485454258497    1.38078929853921
H          -1.05002302813208   -1.69725470610715    2.19328848137911
