    23
        -45.38014082  Gyration_radius:  2.28523742662 Dipole_moment: 4.837
 S           0.66345253732841   -1.71601876475641   -0.38597950919452
O          -0.53778096797670   -2.21595452441544    0.25830295216470
O           1.46444758814877   -0.89667599936873    0.51832082130449
O           0.38304186504391   -1.05986128925146   -1.64728349663813
O           1.56744605613115   -2.96941466133077   -0.72270908737731
H           1.06629793484353   -3.40361757531092   -1.40524667046530
H          -0.90698697395512    0.09605841226642   -1.53183248954403
O          -1.54725748823811    0.78413973442467   -1.26769194591747
H          -0.57281479634197    2.11855838886033   -0.76241442558254
H          -2.04401558353343    0.41147695882303   -0.52869931834289
O           0.15230951738625    2.55860936722606   -0.25964645630132
H           0.97630080250087    2.21742032833937   -0.67995753669740
H           0.08465623751239    1.74515925996423    0.97386317660030
O           2.10804223360197    1.03231542552696   -1.25223613614786
H           2.14495362223763    0.37501510764477   -0.53704000426637
H           1.62326671266045    0.57073170562644   -1.94744923193270
O          -2.19909229482409   -0.48552890239746    1.20360199025960
H          -2.94547255139507   -0.93766060002723    1.59939526401030
H          -1.60439418489039   -1.19786652524046    0.84291117787229
N           0.03953541643279    0.95100870472961    1.73898297199907
H           0.32995965436587    1.27733998915338    2.65357393970457
H           0.67263555446881    0.18658578052281    1.38363439149839
H          -0.91853090150826    0.55817968899584    1.75559961299041
