    23
        -45.36092369  Gyration_radius:  2.50807998819 Dipole_moment: 4.630
 S           0.60919605337833   -1.57345519972659    2.09762167651168
O           0.27925333772215   -0.28633616076435    2.65591004911210
O           1.84175305761049   -1.57758860537481    1.32529232215024
O          -0.49453663506405   -2.14735530773031    1.31312910237191
O           0.82937288834257   -2.57040335041717    3.30358418881334
H           1.02548814609387   -3.38471507581727    2.85101665768171
H          -1.26332636489020   -1.26643064050481    0.50805591406608
O           1.74699386221169    0.14546924406861   -0.57530942979178
H           1.80190543540393   -0.55343983126582    0.13639480376879
H           2.65542286329299    0.37933326281175   -0.77167509830788
O          -0.37054453259122   -0.35084090616444   -2.22101410743080
H          -0.60568225456669    0.59660025835888   -2.38646163057964
H           0.51014016443145   -0.32264332636679   -1.80366660962875
O          -0.26386143717726    1.41295465949587    0.75745745497899
H          -0.09066922844135    0.98068965598429    1.62630664287172
H           0.52961268746359    1.19273532789938    0.23184351045775
O          -1.69096577342765   -0.50890109540557   -0.09634314233241
H          -1.27359443952698    0.35656253743321    0.27953967529213
H          -1.23188060200573   -0.58577740769017   -1.04293479178753
N          -1.05885372480086    2.26166503225217   -2.11523441033051
H          -0.50765577399853    2.95191952489244   -2.60947370550389
H          -0.94547930329252    2.42829179222071   -1.12042723822591
H          -2.03208840616098    2.42166561183402   -2.34361183415369
