    23
        -45.38497757  Gyration_radius:  2.25791175623 Dipole_moment: 2.530
 S           1.01713640630998    1.56551653838084    0.07737431383902
O           1.61520152336131    1.19074099878278    1.34472654844828
O          -0.41493976173909    1.76838191426235    0.14358647490861
O           1.39801957459780    0.64284134823456   -0.99047230295966
O           1.64069838189658    2.96866686436603   -0.31093355722245
H           2.56818846640890    2.82100010540620   -0.15967725795214
H           1.30501277417321   -1.03698357794490   -0.66119170742407
O          -0.86581686244282    0.83928063534252   -2.31447834088884
H          -1.12306028425534    1.47532027254772   -1.62951460314945
H           0.08886097040749    0.72902200510067   -2.12977264179917
O           0.98040706387639   -1.91285349539350   -0.36238774525621
H           0.94748127534906   -1.84371109736328    0.60679106198872
H          -0.53469759558664   -1.77135250088271   -0.83555171128113
O           0.61544619859598   -1.02831207067614    2.21713746983342
H           1.01902664817837   -0.16646036050050    1.92971415538612
H           0.98863644173742   -1.21929217602269    3.07914267678623
O          -1.82846854018910   -0.17129614369668    1.30503912369157
H          -1.44370518974115    0.67112743091301    0.98540771487262
H          -1.11623320211607   -0.57402837413312    1.83119094634806
N          -1.50694151218684   -1.37123187765769   -1.00942591257403
H          -1.37758259181409   -0.54910704737593   -1.66886813419030
H          -1.81885194633637   -0.96715887214167   -0.07360134575827
H          -2.15381823846857   -2.06011051954383   -1.37423521566879
