    23
        -45.36794700  Gyration_radius:  2.24547786392 Dipole_moment: 4.605
 S          -0.44234703497490   -0.49629921280517    1.21232568368552
O          -0.44630039697859   -1.73317097777342    1.94712294614897
O          -1.36817627651258   -0.46562333161324    0.09038361138889
O           0.88551264587471   -0.04637883537980    0.79817252700299
O          -0.94743480009180    0.61281549092098    2.24429436152150
H          -1.47099799979794    0.09803681236976    2.85040280533197
H           1.13085540846947    0.09843911949943   -0.73001278361048
O          -0.26692733557640   -1.99265851697738   -1.83241222380329
H           0.27093580828270   -2.56885294365234   -1.24480240305671
H          -0.95148191233509   -1.61861073222422   -1.24603291721488
O           1.14924832456029   -2.93458602897983    0.20739116945750
H           0.55134314770572   -2.65623207919790    0.92876078799938
H           1.98625429197827   -2.49915111261979    0.38169137846969
O           1.01528905962237    0.14964702378949   -1.73858185503497
H           0.55214195080950   -0.77751871015084   -1.95662087749317
H           0.20439002427313    0.86080274235937   -1.82007303649247
O          -0.96716123571243    1.62378697410193   -1.53097608511921
H          -0.61893500303766    2.26030859814436   -0.84891420734828
H          -1.41299471322630    0.92944516413921   -1.00442611051373
N           0.16919489580912    2.77239073149935    0.57295982615187
H           0.92621970740500    3.44471575854153    0.56348518885176
H           0.54588092980298    1.87660709273747    0.87553005064367
H          -0.49450948635620    3.06208696327397    1.28033217303471
