    23
        -45.36295277  Gyration_radius:  2.41427852318 Dipole_moment: 5.207
 S          -0.83947418990608   -0.39828448245596    0.80585267154171
O           0.36877318711996    0.40383345570097    0.75781002793897
O          -0.74982918833582   -1.65373761852872    0.12891728442057
O          -2.00348292703121    0.43350665806155    0.24025568390400
O          -1.23490105207852   -0.59649328145104    2.27020359920833
H          -1.19043182031156    0.35483297632987    2.67997756637435
H          -2.04752372102646    0.24779071097559   -0.78384950015380
O          -1.76787863481331   -0.18206939722060   -2.17467630088340
H          -0.89173811764230    0.28662803408469   -2.28975544812134
H          -1.55575987904496   -1.11460823777217   -2.06145736749611
O           2.38698783092988   -1.07843507572189   -2.40334408168069
H           3.31182573606413   -0.88282468307737   -2.56002786821278
H           2.32830777551949   -1.43061207382263   -1.48741711036041
O           2.00205929550472   -1.73666261608350    0.17866828773641
H           1.17238540605075   -2.22817160166774    0.12564572259916
H           1.73008540872215   -0.86630705724405    0.50398743799452
O           0.59438893299335    0.89067157674150   -1.96528692264939
H           1.25141682256134    0.22572232614487   -2.26399325954004
H           0.63121506942911    0.87901099771831   -0.99733856531390
N          -0.94210408881517    1.86753042035694    2.85787886339016
H          -0.20077590254949    1.92742366420189    2.16697905894171
H          -0.61909914228949    2.24593934743220    3.73849974056480
H          -1.73444681067014    2.40531596644757    2.53247046988897
