    23
        -45.37164080  Gyration_radius:  2.380034546 Dipole_moment: 5.940
 S           0.44649216462490    1.33693754127204    0.34025766092185
O           0.37346226634968    1.10620384428045   -1.10458011990371
O           1.72607674068865    0.95885037476543    0.90652248929288
O          -0.67151493093999    0.69841746651336    1.02675432831258
O           0.26981148430312    2.88811626136924    0.51437693420604
H           0.33371040853788    2.99799114966215    1.48225416865875
H          -1.48303812676095   -0.73018178532267    0.71256458623161
O           0.52030632063493    2.12649715098837    3.04047977759172
H          -0.19949801794655    1.52273694383319    2.81407620497524
H           1.31555263030605    1.68870902795081    2.70561691366679
O           2.23723156738500   -0.96658361762244   -0.83001827520139
H           2.20336346080883   -0.33479659768580   -0.08239232809229
H           1.98752228928544   -0.42934898047147   -1.58692765029031
O          -1.85050889204811   -1.49791248691574    0.21624594582728
H          -1.88703546143343   -0.81673718725618   -1.05887678811713
H          -1.08485030185557   -2.10567418283753    0.08523868704686
O           0.38103306009856   -2.81550345453255   -0.36696340203285
H           0.77348529887803   -3.42628236912988    0.25847001732569
H           1.08352776802936   -2.14951023400463   -0.56555654008224
N          -1.69474554044990   -0.17207579787949   -1.95129546583631
H          -1.45587249311854   -0.73257034511599   -2.76285889718046
H          -0.84157559100516    0.41835595781335   -1.64317817737413
H          -2.48293608437298    0.43436131032560   -2.15021005994713
