    23
        -45.37164069  Gyration_radius:  2.37994707617 Dipole_moment: 5.938
 S          -0.51286299167590   -0.73673042074238    1.13934819137107
O          -1.15516488210953   -1.11126627675844   -0.12294787039373
O          -1.16578510059380    0.38000676690111    1.79316310802592
O           0.91530456698963   -0.50680813247212    0.94872298990708
O          -0.65798136381257   -2.00058474421993    2.06080172933567
H          -0.22845110976109   -1.70697829034354    2.88678064706618
H           1.76210389707173    0.13893294405140   -0.34111492675444
O           0.65163056966135   -0.35382396452319    3.67244554231643
H          -0.06503544448808    0.25359359491742    3.44095954221078
H           1.26645093527071   -0.29424246419944    2.92925957084494
O           0.18749414395731    2.30455078940507   -1.69016161681453
H           0.34546032597239    3.20743101360830   -1.41071850813487
H          -0.65280757179563    2.03178821012551   -1.24748252836669
O          -2.02230613970798    1.53484713317742   -0.42417408833005
H          -1.75711236115833    1.28392966434297    0.48468105540923
H          -2.34776165042111    0.71069874737897   -0.79662718428415
O           1.98936503297552    0.40007195720035   -1.26359986467738
H           1.44583759167292    1.20368187182858   -1.44138810668510
H           1.18202841176762   -0.62503068583446   -1.88667217037061
N           0.39813200380203   -1.37348306161450   -2.15939834945679
H          -0.27970331811235   -1.33105950386102   -1.31668315784417
H           0.78672635580064   -2.30629262494745   -2.24560027261931
H          -0.08556190130933   -1.10323252340567   -3.00959373176045
