    23
        -45.36368318  Gyration_radius:  2.39574982169 Dipole_moment: 5.234
 S          -0.55265487654011    1.21979638914424   -0.59529827205537
O          -0.15155821893883    1.41937097061074   -1.96350794981491
O          -1.11751615956134   -0.12204068677979   -0.38502704979268
O          -1.69154132874981    2.23782925427513   -0.23170763829554
O           0.51945781962376    1.48403041916877    0.36377036566387
H           0.69412761980634    0.79172678824167    1.57930003192464
H          -2.36917912750799    2.08578264234839   -0.91741863919168
O          -2.77895311851840    1.08362646449319   -2.36719757705673
H          -1.85668950064617    1.23564512463316   -2.63474351813717
H          -2.77634668624123    0.21813443975353   -1.94675153228951
O           0.83640169151763    0.11107539666940    2.38719595095086
H          -0.04476520790868   -0.41729541217771    2.39418582372706
H           1.56229969273473   -0.53516125034350    2.02158426371644
O           2.52156325514928   -1.39710206386933    1.25153041609926
H           3.41023144684905   -1.03741998761567    1.27655559378320
H           2.18811321317083   -1.27210717471998    0.30362893076682
O          -1.33397581082847   -1.13389677620862    1.97795123357843
H          -1.27174384209547   -2.08362402195909    1.85587718734190
H          -1.37997092544995   -0.73649541010940    1.06601971594073
N           1.55012461033991   -0.88696612361997   -1.13366753089448
H           0.54329436506154   -0.92252533682592   -0.98972727136445
H           1.76040220858228   -1.42920915277601   -1.96354405184699
H           1.73887888018242    0.08682552769145   -1.34900848274863
