    23
        -45.37612560  Gyration_radius:  2.33606029209 Dipole_moment: 4.967
 S           0.05361997913866    0.81601562581057    1.84443595044886
O           0.79558449721311    1.67532260678719    0.92478836232877
O           0.29032775904675   -0.58900091094870    1.55622615200319
O          -1.34629776483059    1.16995157485716    1.91238380328222
O           0.65433774827934    1.07018683986558    3.28922521888569
H           0.21104061210350    1.87203633582436    3.54650917383431
H          -2.28725448268216    0.83643074147926    0.52059374488409
O           0.90566655934931   -1.13558112040672   -2.11223385786592
H           1.49558535322559   -1.20833276685092   -1.31442038514058
H           1.44578283571145   -1.36053446253173   -2.87074978553312
O           2.33355942338117   -1.26616179282181    0.08356665808063
H           1.64325098062064   -0.91530758434989    0.69696028020887
H           2.58231301933838   -2.12020439969661    0.44254991836657
O          -1.27255508654416   -1.81523872680523   -0.29228079284345
H          -0.64945418126798   -1.82692965917184   -1.02820389338729
H          -0.76374468093908   -1.50933419179414    0.48095978605745
O          -2.51144638466335    0.54939633905528   -0.39095887699276
H          -2.34615629222901   -0.41918423160353   -0.38721180535659
H          -1.25648707088334    1.01793823555731   -1.11073554029616
N          -0.23814720729698    1.24849780869562   -1.41180501874665
H          -0.20319629722521    2.02390775905113   -2.06390151498554
H           0.19780936052465    0.39487571806629   -1.81331583243533
H           0.26586134062566    1.49125027193069   -0.50238173479792
