    23
        -45.37141402  Gyration_radius:  2.3172400894 Dipole_moment: 3.511
 S          -0.69467726270215   -0.05962962351014   -0.93396606278812
O          -1.30896336841431    0.20454424965141    0.35453701786103
O          -0.87651561599873   -1.42033708822412   -1.40068527116050
O           0.72913837713220    0.31221043759484   -0.92151271714902
O          -1.38836331918662    0.91169785376870   -1.94921927341451
H          -0.94076093771990    0.68102023117120   -2.78871298618519
H           1.38112737880273    0.61454887648338    0.37711869019353
O           0.28399753507960   -0.31760737640910   -3.57106568833407
H           1.00713123770108   -0.04259588731475   -2.99456263661963
H          -0.09558027893728   -1.09412034291542   -3.13312104655260
O           0.46365726590358   -2.90962636448493    0.33820489684274
H           0.02642025459148   -3.76244830587828    0.37585473550520
H          -0.00060403499626   -2.39836583609344   -0.35911436060364
O           1.59002099561657    0.82377720769154    1.36811145611813
H           0.91063721844600    1.62640698424790    1.55438513159028
H           1.13706210156173    0.00947556013754    1.85071886544880
O           0.15264654688400   -1.04664115511565    2.21176524992914
H          -0.59495618936377   -0.66228848360366    1.71121029740979
H           0.39375522791004   -1.84640207378962    1.69296641209713
N          -0.29975651270787    2.49521792750988    1.58448051501259
H          -0.69434421048105    2.71902139068452    2.48888333644456
H          -0.91656422792011    1.82286442163731    1.11545655462679
H          -0.26450818120578    3.33927739677268    1.02826690362801
