    23
        -45.36328820  Gyration_radius:  2.29645308613 Dipole_moment: 3.896
 S           1.29137995389786    0.59953976325620   -0.12333233051959
O           2.44568602697296   -0.22263949187145    0.02513660724465
O           0.47500304702545    0.75655616816332    1.05958301761640
O           0.39655978133616    0.02564418126467   -1.25374423937049
O           1.66788243434524    1.98779343624025   -0.64235080389911
H           0.82919401488575    2.56092257129845   -0.52336913042290
H           0.74063111963930   -0.92550349190610   -1.48384474386199
O          -0.53776977739760    3.12747021162195   -0.13737551946417
H          -1.21795842781099    2.53966280269534   -0.56230803849518
H          -0.55521475465012    2.91324497950830    0.79996876431796
O          -2.12563935830335    1.23953972954017   -1.09160681326923
H          -1.45292452197460    0.76645133487557   -1.59456334652609
H          -2.31067623773019    0.66554225455666   -0.32592747929617
O           1.36270062190656   -2.27336119113527   -1.49325846522472
H           2.26594021519291   -2.01320274606061   -1.27735919209551
H           0.96206924676765   -2.55533065897867   -0.62460979944275
O          -1.96023103338228   -0.27215867433723    1.20203061436375
H          -2.37718242534207    0.02418032710912    2.01304182650394
H          -1.05074617822444    0.09597029612438    1.20388901474015
N           0.36664968623090   -2.35367182458614    0.96261339832773
H          -0.60427183503626   -2.05853065810427    0.95425294937060
H           0.92305526023574   -1.55377067277308    1.24611806816343
H           0.46586313138766   -3.07434864651386    1.66701565120745
