    23
        -45.36241290  Gyration_radius:  2.33104246767 Dipole_moment: 1.616
 S          -1.02518317755259    1.06462524093618    0.99491163724430
O          -1.59641283773158    0.38393963805555   -0.16419256587938
O          -1.51661084061728    0.59626320644751    2.25683935663621
O          -1.48863831300298    2.58375877646556    0.86808776168655
O           0.43336653359621    1.10796576333483    0.89244360711304
H           1.01834863404830    1.25224392031247   -0.38989147937374
H          -2.20967918315920    2.64215615086754    1.48660567232185
O           1.84122505135032   -1.23629755101130   -1.61309288754581
H           1.00650889022222   -1.58786758172934   -1.15553638444835
H           2.58323968823664   -1.57258581892721   -1.10819020587644
O          -0.24727974261388   -1.94361807564674   -0.30522440010065
H           0.03283432534407   -1.98350882769367    0.64203557537771
H          -0.86830787243480   -1.19391810089979   -0.32923775871453
O          -0.89910441125245    1.22335513047230   -2.50998487799355
H          -1.31348738929948    0.97079281338712   -1.64493532328253
H          -1.04013520933137    0.47959587089611   -3.10076143581971
O           1.37891345707270    1.22380951440681   -1.38751675042491
H           1.66510205583072    0.22544435140109   -1.52304983764556
H           0.53127026202463    1.33480930925332   -1.95706829874131
N           0.40969801374369   -1.53093070289679    2.26734996571174
H          -0.34673006970927   -0.86058809222202    2.39734336484876
H           1.26851238328919   -0.99851977248204    2.33910322464823
H           0.38254975190934   -2.18092517271568    3.04396206027514
