    23
        -45.37351275  Gyration_radius:  2.34125357276 Dipole_moment: 6.095
 S          -1.55962452059311   -0.18279058324261   -0.68448569450789
O          -0.31489484444235   -0.23643207817809   -1.47387196409341
O          -2.36685786877688    0.96222104513876   -0.95284392133674
O          -1.23983319050366   -0.37585336353547    0.73540342366129
O          -2.37771845675177   -1.46703143922509   -1.11485408601939
H          -1.82044729893379   -2.21364117172252   -0.87427480863424
H           0.09841257576681    0.26174542052781    1.70993821091975
O           1.04242756690518    0.43689033791209    1.88827400317610
H           1.54154104316968   -0.51952804425633    0.82627955817272
H           1.20650522817626    1.33947435522758    1.52808519572629
O          -0.50337962896215   -2.83149799739869    0.55938305705455
H          -0.80264836048717   -1.90761848081880    0.76468875627166
H          -0.87862933338196   -3.39238316298790    1.24045625127951
O           1.28498581986464    2.77495592955039    0.64430198100884
H           0.98827915536261    3.58448418872134    1.06212968597520
H           0.77242066035539    2.69937048405614   -0.19640913483857
O          -0.20834590613968    2.45390538905330   -1.53938590571822
H           0.02441713292225    1.55952013303596   -1.82905251765046
H          -1.14818376083518    2.35806156453750   -1.32099008064025
N           1.60389297352434   -1.18340823219353   -0.03652422694991
H           2.53422550698347   -1.23696606838054   -0.43522332803140
H           0.88779121605052   -0.77883008455721   -0.72850831480651
H           1.23566429075202   -2.10464812130442    0.22748384997988
