    23
        -45.36596467  Gyration_radius:  2.40334920654 Dipole_moment: 1.825
 S           0.05189671053558    0.21893598240885    1.56367274317536
O           0.27497219629123    1.25491318619185    0.58439591520582
O           1.20960509061219   -0.57676359373688    1.86109068633333
O          -1.10681551193708   -0.67283281999757    1.09139497732852
O          -0.50984508730534    0.83479066914876    2.84679065024140
H          -1.27872302111287    1.42562588598677    2.49742712292054
H          -0.84234136125569   -1.29847241016217    0.28966929082034
O          -0.45886013801807   -0.36650724533847   -2.86989894496513
H           0.31284527260902    0.14015820145722   -2.51279228003703
H          -0.20886225669802   -0.65279619735425   -3.74970072328987
O          -0.36355352773450   -2.07573338474675   -0.84482444748245
H           0.60624998950787   -2.09749916845151   -0.73486987666953
H          -0.53046078884359   -1.49995178846044   -1.63198061226307
O           2.28337875103353   -1.69373857240749   -0.26577575077907
H           2.94585560312801   -2.34292604997109   -0.02241746449773
H           1.98846406339056   -1.27260634137506    0.57325924545060
O           1.66237250817943    0.67804238441312   -1.67221926744335
H           2.12382608581374   -0.10618943165081   -1.34481252514639
H           1.22605804847616    1.05928983412672   -0.88970246252855
N          -2.23731269371972    2.16849473491648    1.52188687477212
H          -1.54949814820807    2.22942257378735    0.77639765227420
H          -2.61371870796048    3.08757069213249    1.71393614784792
H          -2.98553304696599    1.55877286943873    1.21907303882881
