    23
        -45.36241299  Gyration_radius:  2.3310613297 Dipole_moment: 1.616
 S          -0.85240466313701    1.55280398586307   -0.19614666930937
O          -0.65326055559306    0.68349850004416   -1.35286645561903
O          -2.21629231022793    1.66897295041750    0.22784759921894
O          -0.40485894408142    3.00581843806075   -0.67277894264123
O           0.08476819448772    1.20325538333647    0.87126588020579
H           1.38270382041790    0.76203889372663    0.51495160051408
H          -1.23325359502609    3.44210712562538   -0.84310336063037
O          -0.73259112815895   -1.81099213543829   -0.33888512602111
H          -1.25124076559370   -1.59883056070799    0.47546073408511
H          -0.76635934125907   -0.98515346689858   -0.85387469580630
O           1.74327198150869    0.48745899696291   -2.30798249619918
H           1.76683227488377   -0.35372907407312   -2.77051431271104
H           0.79181635179847    0.64980336017065   -2.07945689625456
O           1.68858336748966   -2.11328967088419    0.44842592192631
H           0.73834823195863   -2.07731053640039    0.09426802732985
H           1.62465488484683   -2.42757695267775    1.35159377122797
O           2.27996848208601    0.31332048077474    0.16826623121759
H           2.23264361961666    0.42812630296776   -0.85134436447587
H           2.12821458779388   -0.71018155040048    0.33082329874007
N          -1.98445498103360   -0.73333668833126    1.78078033177725
H          -2.81370836818354   -1.05767160113714    2.26400750419662
H          -2.23749561592557    0.10455781850230    1.25889366536234
H          -1.31588552867282   -0.43369003950198    2.48036876387977
