    23
        -45.37871374  Gyration_radius:  2.30294577848 Dipole_moment: 4.210
 S           0.40128976328469    0.65875098989341    1.14447113800124
O          -0.33806293283377    1.32162499151514    0.06397293939025
O           1.77726043562351    0.41240211249021    0.76356365011637
O          -0.29817491777871   -0.55352387004407    1.56323507705973
O           0.42571853052266    1.63998949321537    2.36196999774658
H          -0.49399201386953    1.62488674731294    2.69285993105293
H           0.52005609461418   -1.95421047818345    0.67220033338762
O          -2.03342683042148    0.82325573009984    2.95312126223577
H          -2.16364913493515    0.42351706584384    3.81594455806174
H          -1.59833849021715    0.14251195328154    2.39722342146380
O           1.28629069291278   -2.08508531636267    0.08561398895931
H           0.78168478369778   -1.65200526599823   -1.34145929179164
H           1.83146160576688   -1.31052364234551    0.32757739774498
O          -1.92097127067117   -0.20861920756963   -1.34114588580867
H          -1.41833334221526    0.34765491989216   -0.69562055584764
H          -2.54325325676972    0.38589570592906   -1.76368422957805
O           1.49649569900533    1.24954227280703   -1.81072037645824
H           2.21143827984779    1.10209434859824   -1.17834582525385
H           0.74912451638345    1.49346995850797   -1.21798853941364
N           0.42313553138478   -1.12427536973780   -2.20137336787957
H           0.55250314539676   -1.65201802827857   -3.05702452241467
H           0.93795676251977   -0.19001166018179   -2.21187921003008
H          -0.58621364124033   -0.89532345068829   -2.02251190073961
