    23
        -45.37871372  Gyration_radius:  2.30373489312 Dipole_moment: 4.214
 S           0.21569253294452    1.28977726281623   -0.44019247790569
O          -0.15979830886462    1.76442531298624    0.87632574849634
O          -0.82063462029210    0.41781814474960   -1.00503069113988
O           1.50807321928511    0.60920227686085   -0.45165824695333
O           0.32740326488601    2.54255476666908   -1.36959867595880
H           0.75975433063907    2.19836255148332   -2.17598669686812
H           1.72959903805111   -0.10904150066444    1.24718377290222
O          -2.42249299621737    0.26596026496273    1.06760154528613
H          -2.04403573744113    1.05196831732762    1.48213225668428
H          -2.03762306290112    0.30971615933815    0.16244319068781
O           1.25940952448365   -0.08559079300310    2.09928237151418
H           0.75591698064313    0.74718263573507    2.00357249320117
H           0.10096610858762   -1.14295779398917    1.95716396650374
O           1.83747799957064    1.08641484610391   -3.00133562658450
H           1.85426207253461    0.68183440236757   -2.10811019620637
H           2.72745289545564    1.40375540216434   -3.17009892144435
O          -0.34058217200283   -2.14721903212796   -0.90183170924863
H          -0.90899374366320   -2.54167575972094   -1.56549125623743
H          -0.40937950375464   -1.16997186040042   -1.03992985448543
N          -0.77452942650783   -1.69462751295956    1.68265313825375
H          -0.60078856674958   -2.08952694805750    0.72509505563089
H          -1.55359304639455   -0.97507510536928    1.56607676554031
H          -1.00355680229102   -2.41328604728336    2.35973402832768
