    23
        -45.36860079  Gyration_radius:  2.27464638855 Dipole_moment: 3.555
 S           0.85163716251625    1.71266195464111    0.15592787058457
O          -0.39779241099815    1.49762831817089    0.85591181149392
O           0.87181451511346    1.09456686442717   -1.15763777035320
O           2.01943920861075    1.32939095333226    0.94845995181296
O           0.97829285910481    3.27405002510073   -0.06198487707991
H           1.89302085282259    3.37225713013174   -0.30667911042042
H           2.04632564635119   -0.10702535124160    1.29665058402136
O           1.18403963238143   -1.51051691039410   -0.98746852830625
H           0.26116096816296   -1.81760025744797   -0.89717064710694
H           1.12032748050828   -0.55149367272742   -1.21104244059443
O           1.84047674031205   -1.11970137357001    1.39124227732766
H           0.86744842826595   -1.12868836085476    1.79083131631428
H           1.68845691983140   -1.41876203421056    0.38657927309713
O          -0.58649255902343   -0.90104863345485    1.98116153712390
H          -0.64080023800587    0.04609093449645    1.72836980195062
H          -1.01776639515056   -1.38607724574819    1.25103144279721
O          -1.44747614728581   -1.91716008296401   -0.40086697862535
H          -2.11475759653435   -2.55158286719083   -0.66364961330806
H          -1.72410323453147   -1.02055709739034   -0.77314782825312
N          -1.95684383308347    0.50152699846363   -1.28290589075713
H          -1.32545600378393    0.68123518294125   -2.05535514693619
H          -1.55810660049284    1.00146625015393   -0.48700311149092
H          -2.85284539512230    0.91933928536662   -1.50125395324400
