    23
        -45.36427709  Gyration_radius:  2.28839023267 Dipole_moment: 3.484
 S           1.20628220587761   -0.07882481322727   -1.03017013034385
O           2.05309998728664    0.99067702327027   -1.45712830261911
O          -0.19242694733429    0.08262294770792   -1.35266995775393
O           1.32362151782706   -0.24017780692830    0.52102514586336
O           1.71096990342866   -1.41789552615310   -1.52721390454938
H           0.91153875554567   -2.08207421114497   -1.41152599186275
H           0.98614820777894    0.60149125645493    0.95309404845928
O           0.45876129393522    2.02772859777699    1.40074122333137
H           0.27001084573064    2.45639018071637    0.52298968075832
H           1.16953876783489    2.53545808657930    1.79872912670145
O          -0.37841425480255   -2.72850643607974   -1.14711817358863
H          -0.45014949871503   -2.74080298725383   -0.14812938100840
H          -0.96506168333948   -2.02369606302926   -1.44311963667012
O           0.17167384198521    2.84699760490599   -1.07915281834460
H           1.00400901667384    2.43242369734676   -1.37057467080740
H          -0.51373404491671    2.28682541892543   -1.45809781514230
O          -0.46583751910232   -2.32133683682349    1.43009335288733
H          -1.08689348102229   -1.55027657403542    1.42514624878386
H           0.40624243503444   -1.93704500888738    1.56027283786472
N          -1.84260672383383   -0.03406785944242    1.05288871552146
H          -1.45794195711165    0.10443967801806    0.12107495818929
H          -1.47240949291790    0.70609274075173    1.63744156036491
H          -2.84642118580495    0.08355688053759    1.00140390394799
