    23
        -45.36022385  Gyration_radius:  2.38760007786 Dipole_moment: 3.317
 S           0.61995053396707    0.72116467466040   -1.34754771101294
O           0.02581734913691   -0.58964375411652   -1.33443735300055
O           1.93107243522104    0.77119585996045   -1.91960359951639
O           0.66865612874233    1.25293560163276    0.12435916035235
O          -0.29420468736055    1.73831270520366   -2.00749128936168
H          -1.03929463336809    1.98589797815034   -1.33643255649003
H           1.19457795225134    0.60179460635535    0.67575287494124
O           2.09966690703671   -0.52227780105469    1.33491364536339
H           2.92674380823808   -0.15291205162094    1.65230082701374
H           2.33072159821693   -1.06889252700017    0.53553626213248
O           2.57121807800760   -1.65211986919295   -0.98816976027225
H           1.72207170577089   -2.01989227905370   -1.25563063040865
H           2.62406826440747   -0.80937229490592   -1.47578624671011
O          -1.95296831635761    2.33412898880560   -0.21191680422130
H          -1.34894113075647    2.64193051083733    0.46911522829990
H          -2.41086061078432    1.53814397304196    0.17930950295465
O          -3.02085294698065    0.20276702257850    0.87857420722190
H          -2.26192182816605   -0.40156725477709    1.10839935949378
H          -3.56958209418943   -0.28207437645447    0.26000230098097
N          -0.93842408161169   -1.43140518930455    1.21617122197025
H          -0.19038183307347   -1.15485661654454    1.84060369110150
H          -0.60295274647095   -1.27718687180197    0.26552709471403
H          -1.08417984186347   -2.42607103538739    1.33645057448832
