    23
        -45.36097172  Gyration_radius:  2.30946971622 Dipole_moment: 4.097
 S          -1.30616747416329    1.30137877442694    0.65900742949704
O           0.02171322276894    1.42886490150671    0.09538805445258
O          -1.39997726804664    1.47078539247693    2.07962196316443
O          -1.94157115478134    0.05489773615254    0.19788810614940
O          -2.14884840593931    2.47797576222131   -0.01223112322148
H          -2.88969930149217    2.61017388558232    0.57237255746215
H          -1.35072928411880   -0.56966708004453   -0.89867034615688
O           0.48083260700260    0.99542827698583   -2.47729478361625
H           0.17926898431234    1.51524860125627   -1.70630276914377
H           1.40009718284096    0.76107578273640   -2.22962430248541
O          -0.75564762829493   -1.03152124649361   -1.66400109494483
H          -0.25986516539778   -0.22203225350223   -2.13196334565496
H          -0.05109041204090   -1.52850774534492   -1.12876712464121
O           0.96247462202472   -2.12107820723251   -0.07974006834844
H           0.71527024052782   -1.64363912476376    0.78205524778096
H           0.86030484635086   -3.06010953728535    0.08228442381633
O           2.40412752194712    0.24321361616145   -0.76750593742096
H           1.78252512564591    0.75587490283653   -0.22956612636191
H           2.22678774413639   -0.68123422487698   -0.55942821882359
N           0.33633886324862   -0.84736274190737    2.12603930151360
H           1.15273125977040   -0.42093637914086    2.54995627791411
H          -0.11731314634188   -1.40262977968390    2.84264185232657
H          -0.30156297996494   -0.08619932209071    1.89784001674525
