    23
        -45.36097156  Gyration_radius:  2.30965439246 Dipole_moment: 4.101
 S           1.87634970107337    0.29558874480663   -0.47565859812885
O           2.75136017868427    0.74450901447038    0.56762076020945
O           0.67102702177327    1.07544349531868   -0.66648895127822
O           1.54761223100574   -1.13549565465149   -0.35762114872912
O           2.67371623334513    0.43371965828786   -1.85047283878928
H           3.57639435956104    0.22248746172503   -1.62990197973876
H           0.27167777996568   -1.51193676016676   -0.77228928649023
O          -0.76408454288122   -1.67773775389499   -1.00235969428675
H          -1.00614147708398   -0.90436735728420   -1.68290810289209
H          -1.22625126507940   -1.44631135348907   -0.12907722239325
O          -1.18180389923354    0.35338752689290   -2.41622246516204
H          -1.83250460275335    0.83292245347621   -1.86137888410312
H          -0.33245951641958    0.74852033599853   -2.13659105267508
O          -1.69359140087971   -0.94873852605364    1.28977505086983
H          -0.85565227756092   -0.52632972761001    1.67850573263045
H          -1.95642003252343   -1.64944860240375    1.88844290714471
O          -2.04644940519554    1.49095396928284   -0.14727487468327
H          -2.22236508727418    0.76530404400168    0.46252107974791
H          -1.08570771452656    1.61509370031915   -0.13513259232618
N           0.47013052791691    0.17331655913957    2.25882612130762
H           1.15775056921030    0.26228359266325    1.51207556901027
H           0.92475015580363   -0.32600807216830    3.01490009443458
H           0.28266247307360    1.11284322134966    2.59071038633362
