    23
        -45.35968407  Gyration_radius:  2.36424104306 Dipole_moment: 1.693
 S          -0.22712591926051   -1.70056065362356    1.08878576036839
O          -0.96805761665541   -1.68314051466711   -0.15012735591956
O          -0.87248338503717   -1.02439153047240    2.19457910388686
O           1.14724994790545   -1.20762132480563    0.90046344815992
O          -0.07996433472832   -3.21893228075417    1.51399646420815
H           0.15151021549010   -3.14902849096409    2.43497360095886
H           1.30500161453002    0.19147580160484    0.93311227555766
O          -0.84072849306284    2.16465887529509    0.10763838522609
H          -1.09040859490663    2.94755850385972    0.60170167339506
H          -1.54116775852619    1.47327855636262    0.31385934325710
O           2.48791478169461    0.74049694229477   -1.48723577277495
H           1.57656425486736    0.49471740206488   -1.86675092083285
H           2.94015630025260   -0.09210524403493   -1.33181478645798
O          -2.54496401582021    0.30619158792516    0.70083242489313
H          -2.39332907893324   -0.39429238733870    0.04950972455227
H          -2.10480094561147   -0.06648557997417    1.49300073107785
O           1.45827112122832    1.22823325809627    0.74410099569644
H           1.98187896099540    1.17020074473887   -0.16639669121539
H           0.54404272086156    1.62607685164626    0.51328078699433
N           0.03928059423673    0.10779357488802   -2.12804131204783
H          -0.53084280052324    0.92291165861282   -1.93189063703915
H          -0.24331035544829   -0.62203603896600   -1.46937923205911
H          -0.19468722354730   -0.21499970178404   -3.05819797987463
