    23
        -45.35968419  Gyration_radius:  2.36434602082 Dipole_moment: 1.687
 S           0.12479235516636    1.14012558747525   -1.67741781451153
O          -1.30376473491991    1.12834193043013   -1.91284120696496
O           0.76880163394934   -0.14773351565472   -1.78214371023218
O           0.44211663068493    1.79764778343138   -0.39895479553978
O           0.75792693979182    2.06207281972084   -2.79861569278928
H           0.12020710132391    2.76609026757498   -2.86478905657595
H          -0.35021319858137    1.41377493959847    0.69993652557428
O          -1.56443629541585   -1.44591445841712   -1.58832989266005
H          -0.62304734517502   -1.48613190460981   -1.81227190952013
H          -1.77546855749729   -0.51346393043388   -1.80295573434645
O           1.50541461557863    0.53614132323342    2.52892377563067
H           1.61625063574384   -0.24165630596533    1.88267110804518
H           2.03585394600901    1.25188397020800    2.17080108219319
O          -0.76905059639666    1.02274540401213    1.59772985852223
H          -1.14662644614979    0.09896788305856    1.37105440505378
H           0.11142555055136    0.84424052585612    2.14491020801841
O          -1.64022381384421   -1.31147329392053    0.99753222003662
H          -1.62404662473391   -1.41670115961466   -0.00237558814166
H          -2.54839410316456   -1.46591032317063    1.26353006606123
N           1.50976494186466   -1.32964885151657    0.70522634509890
H           1.35916301227627   -0.85070839137280   -0.18600360646455
H           0.69197726949829   -1.90390524209202    0.87669049014777
H           2.30157708345138   -1.94878506783741    0.58769292336731
