    23
        -45.37712012  Gyration_radius:  2.44519585423 Dipole_moment: 5.052
 S           1.35452308214648   -0.39096329544545    0.39847157555327
O           1.81158255883312    0.64449175746391    1.31614512652649
O           1.14148354773487    0.11245986589532   -0.94174285153737
O           0.14286400368216   -1.03865970042330    0.92665680447695
O           2.46202162744842   -1.49424717039544    0.30892358356667
H           2.57430129864088   -1.77994862342658    1.23707614739857
H          -1.01313218339956   -0.04513731768373    0.69780271133827
O           1.98969372111839   -1.53271159913397    2.91926980051340
H           2.10860393636569   -0.58024874856905    2.78533240897520
H           1.07899435119691   -1.70369142392604    2.64813590496394
O           0.32393889834728    2.53285758330707    0.23206738816017
H           0.95310515850960    1.98858791749670    0.75791021215563
H           0.63275321825956    2.42523962893067   -0.67284780895290
O          -0.48022619791626   -0.92032123651697   -2.71831744974338
H          -0.08392870333885   -0.66033432223500   -3.55183873809820
H           0.15018767071107   -0.61949233998944   -2.02176090518895
O          -2.75269419443651    0.08431658928523   -1.85566174967546
H          -3.35596218428302   -0.66073581798891   -1.83472974901519
H          -1.91832041351794   -0.26260045330624   -2.26534396891028
N          -1.65551376921280    0.77966880022573    0.47557882632911
H          -2.30893569841343    0.94815707642643    1.23312269647511
H          -2.15919232630790    0.57239227322046   -0.42871002744183
H          -0.99614741235864    1.60092056664437    0.35446007212402
