    23
        -45.37712010  Gyration_radius:  2.445338128 Dipole_moment: 5.057
 S          -1.14574230571089   -0.89804548304398   -0.16655201085002
O          -1.67391854293546   -0.62396939303425   -1.49674198741641
O          -1.27425838962392    0.23582562360641    0.72396267071689
O           0.25135239138547   -1.35220592681415   -0.25868996729956
O          -1.96955013639525   -2.07406853477589    0.45804346648637
H          -1.86136467834322   -2.79735042243408   -0.19052691866077
H           1.09599876197662   -0.09703013359873   -0.55265878116270
O          -0.85442610616528    1.88270480041359   -1.51515175233763
H          -1.27258832610410    2.15182194321304   -0.69140940618995
H          -1.24836862247623    0.99946200180991   -1.69710159418384
O           2.32219871441077    1.75334731536090    1.60086201128124
H           1.53444652062117    1.43547271000516    2.11339211520385
H           3.07547336319114    1.29877421719053    1.98219703722791
O          -1.08499033370216   -3.25689588618934   -1.74622351704976
H          -1.43987440359536   -2.43912226267637   -2.12643395436154
H          -0.21555653527646   -3.00936369888287   -1.40717238299035
O           0.23097126220992    0.71443427870577    2.81144882412260
H          -0.34414676868096    1.22855296292916    3.38095633468587
H          -0.33003596409618    0.44246821353882    2.04694428184689
N           1.48736973874969    0.87220698370706   -0.77588888288989
H           1.87217958193059    1.28717371655232    0.11518921380685
H           0.64645988811939    1.42414715630832   -1.11063660622525
H           2.19837088040143    0.82165983818604   -1.49780820370029
