    23
        -45.37628084  Gyration_radius:  2.35309866117 Dipole_moment: 3.227
 S           0.27566352814437   -0.09551593263486    2.06046317613671
O           0.99282273486828   -1.33946393497202    1.91403421533713
O          -0.95360215796862   -0.05026220255521    1.25617655474578
O           1.08453590926836    1.08507658985739    1.85083989550603
O          -0.24425663141250   -0.04477167600175    3.56216140368254
H           0.55784184512018   -0.19096170895028    4.05271313188463
H           1.81776800190034    1.52723438151502    0.34334721527081
O           1.48498311355964   -1.12112381955106   -0.69650646960693
H           1.52224613272603   -1.26265862969675    0.26851995434045
H           0.63959925302093   -1.51609305162616   -0.95066641629138
O           1.85329760389619    1.53278582965853   -0.63617291876996
H           1.93673001306794    0.58208677475195   -0.85895271416164
H           0.34713024826545    1.73739224575056   -0.80055240164897
O          -1.41249520901490   -0.13049901471616   -2.64800691866420
H          -1.51335535125957   -0.85807484649621   -2.00554606852016
H          -0.65622276502338   -0.36019920754176   -3.19253687707254
O          -1.21054604080084   -1.89054088538906   -0.59947289227856
H          -1.45965249997066   -2.73527801214723   -0.22250884667779
H          -1.16028725807482   -1.25743378306680    0.15685324354947
N          -0.73219235195757    1.65201904582424   -0.74185809727534
H          -1.18279414020124    2.55733869716827   -0.67620786573629
H          -0.90843448605686    1.07724529974767    0.12594594631412
H          -1.07877950203519    1.10169782107198   -1.56206624002352
