    23
        -45.37628076  Gyration_radius:  2.35293590784 Dipole_moment: 3.233
 S           1.87013436977056   -0.11481150154631    0.90598018696946
O           1.80352349044570   -1.55615921386890    0.87189232209726
O           0.61641884333589    0.50107018528130    1.36283675569550
O           2.33376452015475    0.48782185961182   -0.32444615844621
O           2.92105385491361    0.26531553048853    2.03675935717762
H           3.68483540165759   -0.23573870261492    1.77062089871082
H           1.48526968398429    0.42150326176987   -1.83371314885177
O           0.66614901380959    0.35796432335207   -2.36841380820601
H          -0.13604838904112    1.28392403831342   -1.45406350918225
H           0.30302124637946   -0.51563660748689   -2.11244718178302
O          -2.95402962603942    0.45867709211926   -0.28269853235168
H          -2.61357831630340   -0.08403830086707    0.45344332399248
H          -3.11323181014561   -0.14867089672570   -1.00867166188716
O          -1.49926056692476   -1.05253395741346    1.42961254353211
H          -0.68789443162937   -0.49306695597968    1.49466641657191
H          -1.48306575653602   -1.63317754188135    2.19141115029938
O          -0.15104804695296   -1.75013624554626   -0.92960485273998
H           0.66051738020937   -1.84166523374659   -0.39506570881775
H          -0.85156481605473   -1.67920149420103   -0.26667818112897
N          -0.61161883519833    1.75587288232552   -0.60150055610697
H          -1.59720165237989    1.41181216224081   -0.52331841197611
H          -0.56631950885424    2.76698876916046   -0.65196212501754
H          -0.07982605864402    1.39388654729857    0.23536088140366
