    23
        -45.37292323  Gyration_radius:  2.32108480091 Dipole_moment: 4.902
 S          -0.50485786701980    0.24553576217047    1.26043130126821
O           0.41000915363308    1.15238031728348    0.56180125851576
O           0.11491802592230   -0.42215761279510    2.37258486269134
O          -0.94617123528958   -0.82478752071843    0.19367000189418
O          -1.76846517487612    0.91441769574188    1.58299033692553
H          -2.43030324459472    0.95532182084183    0.35149415376521
H          -0.13832457190884   -1.38087426945946   -0.08804092943598
O          -0.59450652613608    1.88945255652272   -1.72207290526500
H           0.00015839608884    1.42142004686571   -2.31504978989857
H          -0.18447356491717    1.78200663242392   -0.82678850374551
O           1.15056700192258   -2.06103627614202   -0.54093575717020
H           1.56911789179566   -1.32559219348816   -1.03286662785775
H           1.66237622122371   -2.11601912168226    0.29606425965795
O           2.33445385219521   -1.71103461981553    1.82544213883871
H           1.56776219999342   -1.15541089816057    2.09892596739946
H           2.42335705825156   -2.38018454984657    2.50599773468855
O           2.13241208857012    0.33857815916680   -1.27197233821367
H           1.57044240677959    0.68396468218310   -0.54238001349844
H           3.03667803932211    0.43821679407924   -0.96950247300955
N          -2.80734467612385    0.90553168349024   -0.70604001068233
H          -2.90990382493519   -0.08223198760845   -0.92447386356398
H          -2.01209479578079    1.31734610603673   -1.27814620519656
H          -3.67580684411698    1.41515678290724   -0.83113258810444
