    23
        -45.36311467  Gyration_radius:  2.38164059121 Dipole_moment: 3.337
 S           0.08044114546268   -1.04383799266231   -0.76060529527379
O          -0.95520355657260   -0.10745577042562   -0.38193799102933
O          -0.01169194181072   -2.31380101144933   -0.11171844496355
O           1.45630172680777   -0.39463106162557   -0.49997981989594
O           0.08307687273105   -1.22862016444791   -2.27233614673048
H           0.18489709234005   -0.30243599589158   -2.69807034263044
H           1.54933777467787   -0.15585821941833    0.48902448777707
O           1.61471732234210    0.10518248350360    1.97626671371027
H           0.95564146858778   -0.57625377783401    2.31976845257080
H           2.46940210136511   -0.15619235125727    2.32666383222048
O          -0.05399180888838   -1.77611754235136    2.54859352237541
H          -0.94253376009494   -1.36640405234622    2.56257158075809
H          -0.00845931373983   -2.22559127573923    1.68691217729891
O           0.21979976165558    1.12637417894505   -3.20287101955387
H          -0.64910789012793    1.32897454454930   -3.55729295248393
H           0.32652571624883    1.68789149437995   -2.37511568816976
O          -2.40384017795905   -0.64712991026012    1.83671894429146
H          -1.95016509382830   -0.35449195570265    1.02435945831440
H          -3.05149129151007   -1.29791574688960    1.55999779327040
N           0.29157675262808    2.39264659887407   -0.88770443526473
H          -0.13163450077306    3.28635308390032   -0.67146333925008
H           1.20120275910278    2.36113995221181   -0.44523041983141
H          -0.27480113866031    1.65817448193011   -0.46655103751071
