    23
        -45.37078318  Gyration_radius:  2.26783292264 Dipole_moment: 2.650
 S           0.57216792412863    0.15005497072996    1.75123065011523
O          -0.60670846627963   -0.35197714978160    2.42262209256414
O           0.32951177409475    1.34625129907681    0.96437145447648
O           1.23892569155297   -0.88516144378885    0.96291742183465
O           1.59105245459656    0.57193564177414    2.88493835760736
H           1.44474088708791   -0.10573433851121    3.53667482108261
H           0.42480812346514   -1.66386388114677   -0.03109640786949
O          -1.76015795468363    1.22275850901492   -0.59704994711536
H          -0.98685628762046    1.32358479347554    0.01211136137446
H          -2.20078368289075    2.07357671306438   -0.61094050812385
O          -2.27246575362077   -1.20258812131350    0.58124641771800
H          -2.42452554375380   -0.35792712080451    0.12440008524721
H          -1.78347768925379   -0.96041133784036    1.40174650621636
O          -0.22356736521589   -0.19077201335090   -2.37764687694341
H          -0.89292883764284    0.38929309366606   -1.97276249939501
H           0.65980446830558    0.22203348271680   -2.13298593172368
O          -0.26815721936749   -2.02457576687908   -0.69814240178336
H          -0.24443682119180   -1.31872211994149   -1.51732970692319
H          -1.17507256355897   -1.84087109382307   -0.21486940750412
N           1.96201180219128    0.82276535347770   -1.31618808297748
H           2.54844093637740    1.56537131583992   -1.67533776893949
H           2.56160478806772    0.05783974495564   -1.03080282103281
H           1.50606930520134    1.15713947945615   -0.46710678780437
