    23
        -45.37772318  Gyration_radius:  2.31626010438 Dipole_moment: 2.188
 S           1.25276680995502    1.46843248574897   -0.37577210100575
O          -0.00931555511132    1.29746138475901   -1.07827975332312
O           2.32058703255433    0.66276333157294   -0.95595221775760
O           1.13131790048924    1.26729774327938    1.05226302158393
O           1.65688844499052    2.98684446422124   -0.59131963076681
H           2.41152791269253    3.08101995615595   -0.01854199250370
H           0.74776982318517   -0.24190632103608    1.71842094261285
O          -2.09349471687410    1.62095945578454    0.48107338296560
H          -2.73528102552969    2.01901475520437   -0.11039026256591
H          -1.24592371731956    1.60249429453073   -0.01963524140205
O          -0.95651695515554   -1.17142553237785   -1.59698472321075
H          -1.52304084786253   -1.26689689079562   -0.81487465314647
H          -0.69855803635986   -0.22825523243574   -1.60689268850705
O           0.48277937484405   -1.18446174753389    1.80486419425352
H           1.12243697649106   -1.68327136528741    0.46379232869567
H          -0.47673849727320   -1.18892942623648    1.63268619780454
O          -2.13131152382501   -0.98470322787277    0.93493402791851
H          -2.86805946841427   -1.22248799094766    1.49917697013538
H          -2.15437524892778    0.00091663752047    0.84238816705663
N           1.40002924382380   -1.73994375509709   -0.57034516802012
H           0.49383106297373   -1.71356321396128   -1.11880341210124
H           1.96850849320240   -2.55085926344354   -0.78564437406400
H           1.90417251745675   -0.83050051174587   -0.78616301465115
