    23
        -45.37280800  Gyration_radius:  2.38331436129 Dipole_moment: 5.487
 S           0.01118975625524    1.27835027150002    1.58649830421764
O          -0.79299940195433    1.33892289496480    0.35540524775912
O           1.14692784349519    2.16488977143191    1.54869313095972
O           0.30816891530927   -0.09127032938105    1.94224092001892
O          -0.94177534190493    1.84530340500189    2.73028141750226
H          -0.66286549773136    2.75429055022718    2.77284337922766
H           0.17119638257616   -1.53713237710452    1.05200120665940
O           0.06133216383206   -2.09455600074804    0.25111135260476
H          -1.30734127768398   -1.48885312278250   -0.21795280525611
H           0.62159023492691   -1.63996818114658   -0.40527126979809
O           1.01726153357990    0.03786980336139   -1.19044770678833
H           0.42651381596236    0.65310457554772   -0.72070240264338
H           1.87742174247666    0.13692351125650   -0.72808011278334
O           2.88397797829747    0.34807020379547    0.68732842135252
H           2.67583989332631   -0.33284661073993    1.33265040850998
H           2.42103299205490    1.14441322110629    1.01494663017263
O          -0.85662519586886   -0.61591529092671   -3.05121506721519
H          -0.55643511028430   -1.36958495915778   -3.56192400445046
H          -0.07090278010625   -0.26854217431936   -2.58885069803829
N          -1.99434896974755   -0.76087540389265   -0.60870941373550
H          -2.96440126718059   -0.95326364818528   -0.38967619052142
H          -1.81542205328810   -0.70223166556031   -1.63453081296493
H          -1.65933633632166    0.15290156575157   -0.17663993479598
