    23
        -45.36358330  Gyration_radius:  2.39976833941 Dipole_moment: 2.478
 S          -0.12564336521269    0.69791284360035    0.94690354329105
O          -0.41687516843497    0.62474633583129   -0.49634417230144
O          -1.17944301248114    0.09724459784644    1.72762205920040
O           0.00286360211729    2.20626522240085    1.30450100690834
O           1.18755994849065    0.10612669401420    1.22386023877515
H           2.08726728093498   -0.30275753240492    0.25444735477110
H          -0.93142895603079    2.54435442978419    1.22772859423146
O           1.36039080624180    0.52397054058637   -2.36560773003226
H           0.95642699996794   -0.00865472828469   -3.05423516042158
H           0.64410367344379    0.70647280630148   -1.69999954451056
O          -0.94982485009605   -1.93456818651446   -0.11169358679846
H          -1.18900758371398   -1.75849255101900    0.80718967932326
H          -0.87331949488638   -1.03369412159614   -0.48071201112349
O           1.42837108245479   -2.96830409745665   -0.55086978629000
H           0.49188091307496   -2.65710066632652   -0.42362562391455
H           1.63931466848443   -3.50340260615887    0.21656636339424
O           2.64048860193000   -0.73156047001122   -0.56809914443712
H           2.25465220063699   -1.68442753535146   -0.61444736667970
H           2.27143371466077   -0.22495398098541   -1.38168910603111
N          -2.59038182810499    2.44678601855941    1.03497222695008
H          -2.53993891796033    1.49064144556286    1.37983160164053
H          -2.87344079755300    2.41481988193624    0.06433127019287
H          -3.29544951796333    2.94857563967547    1.55936930386184
