    23
        -45.37013297  Gyration_radius:  2.33790154041 Dipole_moment: 3.815
 S           0.85553462596801    0.01592127221259   -0.53016439366286
O           1.76365586594877   -1.11817586267220   -0.54570603783308
O           1.02923434408482    0.86382792118102    0.64489149359628
O          -0.53896503282741   -0.38462145025114   -0.68128953945260
O           1.19893612323831    0.93057139592958   -1.75751002111660
H           1.38023053258789    0.29958105309067   -2.48560716137806
H          -1.24472102520333   -1.11481663970195    0.73901868645565
O           1.85190389899231   -1.20291638534906   -3.16392333850784
H           1.85530687490301   -1.47855992269901   -2.22452504721471
H           2.75696463174355   -1.28471978069295   -3.47363682430374
O          -1.37577638886419   -1.19133259242029    1.70743510015624
H          -0.51476927018133   -1.54251376835829    2.02649831018214
H          -1.32153016299582    0.25852042910250    1.98964779173098
O           1.23531014634628   -1.64024581887107    2.03315299840747
H           1.63889607241288   -0.86161381346236    2.42453075942303
H           1.50263396147802   -1.61744435824439    1.09563138962716
O          -1.09518370835639    1.28531624132150    1.90093370970886
H          -0.15644287792268    1.23050195059710    1.47911111947806
H          -1.68168096986696    1.60014661412909    1.05865669707687
N          -2.23472697196539    1.76242546939659   -0.30133279736994
H          -3.22275203731037    1.59551542923173   -0.44013266591242
H          -1.70606363465203    0.98240626915172   -0.71075548440544
H          -1.97599497753734    2.61222634742252   -0.78492472462568
