    23
        -45.37013297  Gyration_radius:  2.33762809682 Dipole_moment: 3.817
 S          -0.17880182140496   -0.97055590228883    0.19961568904071
O           0.36262313434804   -0.34795822104093    1.40335238314805
O           0.67482230908990   -2.02433179696132   -0.32202570977631
O          -0.50053454589719    0.03533365894317   -0.80669498370389
O          -1.53719544274030   -1.61880096464990    0.64131706777644
H          -1.73216712863718   -2.27369173551963   -0.06168922939929
H           0.80859381004864    1.12618878256935   -1.19062382862413
O           1.58229657681648    1.67857044316820   -0.95180803281634
H           1.06006129655738    2.12598647179515    0.35635050435961
H           2.27563735499647    1.01682887290375   -0.73294227981954
O          -1.34173458752224   -3.36353031667948   -1.32690343223914
H          -0.44673733551022   -2.98780207518453   -1.19940278072369
H          -1.27799945417803   -4.29598823638653   -1.10731353023170
O           0.51607557020809    2.14715590895057    1.26028071447124
H          -0.49504457464630    2.31881864808025    0.94148201778975
H           0.48566883176305    1.14073887989361    1.47990381282717
O           2.84939961112404   -0.48018671337641   -0.02533171832426
H           2.87086890992578   -0.44130845595466    0.93401108162094
H           2.16883750337960   -1.14645079305136   -0.23485276080443
N          -1.82828106650251    2.17709779578291    0.32323252077902
H          -2.58267957595945    1.93696569538384    0.95271434348397
H          -1.58765176468562    1.34365478432930   -0.22735627811929
H          -2.14605762059010    2.90326527942956   -0.30531554070286
