    23
        -45.34808362  Gyration_radius:  2.5318834291 Dipole_moment: 2.356
 S           1.79312001062721    1.16420861546101    1.30417358916678
O           1.71466559010388    1.38132045439311   -0.10847803429242
O           2.24807539428263   -0.13188566727395    1.69276694078311
O           0.48455926067645    1.54538002229164    2.00618384428129
O           2.75126665431636    2.24912079002471    1.92814648560582
H           2.21696282545530    2.77880585229439    2.51583983619456
H          -0.24457031530925    0.97184610272743    1.52011032498471
O          -0.93036326112242    0.09003999661611    0.64726064645357
H          -0.44041853029807   -0.77163315031155    0.59212295656448
H          -1.88957600471946   -0.13100389497875    0.49797272152838
O           1.57357489835490   -0.67707463693085   -1.84907057700493
H           2.41762105858906   -0.73688237553819   -2.29879780280572
H           1.62154804087694    0.11771912225011   -1.28149202944499
O           0.67747525538265   -1.97329160975308    0.42150638492582
H           1.35451307674436   -1.58014119754081    0.99383007185111
H           0.97105539192690   -1.78692656439732   -0.48632151841046
O          -1.15047608314119    0.13478021542287   -2.22168427063080
H          -0.96643765376247    0.59293759000767   -1.39307062692144
H          -0.32699531789366   -0.32272755611940   -2.42823645573182
N          -3.29929177454414   -0.64943536695777   -0.31662114275065
H          -2.87856700158877   -0.53839400892448   -1.23763504656130
H          -4.15023106878456   -0.10257487122190   -0.29418846684483
H          -3.54751043619860   -1.62418786152080   -0.20431784095847
