    23
        -45.35648684  Gyration_radius:  2.34720350116 Dipole_moment: 3.289
 S          -1.91150006293435    0.34415918972515   -0.64567905092537
O          -2.52229787200499   -0.43708244095266    0.37746976910319
O          -1.10689602026010   -0.31701392169361   -1.62335891075150
O          -1.11708873204106    1.48924150743415   -0.01175625343200
O          -3.06459400163905    1.09426972082598   -1.42032078610112
H          -3.77360327148502    1.22876251793526   -0.79557684692869
H          -0.30040662570745    1.67599745857809   -0.67108818436335
O          -0.46794053293393   -1.48784363190637    1.97165116116923
H          -1.31536928884481   -1.24042112517820    1.57806409039292
H           0.04858232868268   -1.89571290622209    1.24027891224427
O           0.81412888206647    0.81342468816438    2.03326158882196
H           0.39848823212204   -0.07620622729612    2.17685200800632
H           0.10677087721693    1.36097281186230    1.67923311275691
O           2.47152884400496    0.51477418165736    0.03904866773015
H           1.88967664046781    0.58654977217109    0.85098979055912
H           3.28435813092431    0.97304476896998    0.25801490379101
O           0.76459971510046    1.61637954737818   -1.60611680454030
H           0.39768948950668    0.87768034558431   -2.11310722931812
H           1.50606727965388    1.23138091844690   -1.05670199535771
N           0.87366389899972   -2.11596997289812   -0.31391880312184
H           1.68060858566428   -1.50191553121223   -0.32095683566620
H           0.18312928653652   -1.72090435489602   -0.94447482771526
H           1.16040420685871   -3.01356732647133   -0.68180746638248
