    23
        -45.35405975  Gyration_radius:  2.41011068468 Dipole_moment: 5.680
 S           0.49571150437226   -0.58258424161132    1.09134979020859
O          -0.55870901967080   -1.38862040866417    0.56917881765388
O           0.09312078212718    0.74774117932177    1.50001541633332
O           1.66035010796938   -0.46899444680514    0.10696634659954
O           1.13872579253005   -1.29892002914675    2.29095931247838
H           1.69175603817149   -0.60926291113478    2.73967950901504
H           1.40187165467637    0.04546637609351   -0.74945509184575
O          -1.11443142784323    1.85925217513493   -0.67947204937237
H          -0.79157678340605    1.65595048005124    0.21334261833287
H          -1.83389652663520    1.21868934126455   -0.84172529368564
O           0.95655288414628    0.90284872974527   -1.88596983302517
H           1.57937334635007    1.61325217364466   -2.05546513251813
H           0.11330802531963    1.33130753800127   -1.53844517563806
O          -2.70213368111679   -0.33263265106726   -0.73717932136535
H          -1.98548576390987   -0.83547014946709   -0.31041901404432
H          -3.50427065960998   -0.53743488757946   -0.25424319302655
O           2.09999921270034    0.92698295281568    3.20718220875793
H           1.86199212595906    1.18169405132095    4.10222944841448
H           1.38454318355209    1.23516127448519    2.62086171472095
N          -0.45887342974194   -1.87944604865799   -2.53423663219527
H          -1.39281663178457   -1.48780471728230   -2.58240234432408
H           0.18632577903644   -1.11480765750957   -2.69630038960939
H          -0.32143648321049   -2.18236810293557   -1.57645168186246
