    23
        -45.35338790  Gyration_radius:  2.31203672275 Dipole_moment: 3.404
 S          -1.51921345772719    0.72840142133854    0.75835050411106
O          -0.96877845224449    0.31831593901881    2.02831039496407
O          -2.80154284859580    1.32625600982037    0.75871922617402
O          -1.55649710259573   -0.54506996347788   -0.16602844794019
O          -0.47026146348632    1.62892411566551    0.09167131522161
H          -0.65180914808923    1.73990103104246   -0.91150091714289
H          -1.01403875343826   -1.24154597990388    0.26700589725188
O           1.52859346573727   -1.15709586807044   -0.48283328775391
H           1.19139736740641   -1.85626918202891    0.08484634619065
H           1.75629193859419   -0.42115657433034    0.13144772189392
O          -0.27167313360265   -2.15278431844577    1.50173268367847
H          -0.36754256590753   -1.29864394371178    1.97323833678917
H          -0.82417710743913   -2.78722706014790    1.96316005322105
O          -0.71187151520991    1.76117515718838   -2.41135312214110
H          -0.46998855327989    0.80978963241375   -2.60649744685364
H          -0.00289194756406    2.29983835808192   -2.76979257050342
O          -0.05221693561473   -0.75081941561596   -2.61640845632697
H           0.62370578702819   -0.88954409994675   -1.91452182837257
H          -0.85609370400492   -1.15621337893097   -2.28079968606484
N           1.89799517919555    0.71313529254320    1.46164845941034
H           2.52276177291955    0.57731776784340    2.24683918802348
H           0.94386568152164    0.71944044825204    1.81257701603754
H           2.07398548638836    1.63387462140172    1.08018863012799
