    23
        -45.36006812  Gyration_radius:  2.39464421172 Dipole_moment: 2.649
 S           0.90509254247563    0.44709351284388   -0.48042277670960
O           2.06008530519765    0.04366296370691   -1.22747546723104
O           1.18533499325641    1.14197587025767    0.74503566856731
O           0.04099826528414   -0.81073997678205   -0.16654745550252
O          -0.04400285295508    1.29747104740951   -1.31828554370418
H          -0.75239173135993    0.73306217941822   -1.81721917090441
H           0.65538362014906   -1.50648350611514    0.23901249031117
O          -2.79575808713553   -0.51543412130969    0.01358714369800
H          -2.45198802027957    0.28237922347671    0.49871579240779
H          -2.19219995258805   -1.22383319802495    0.25238581205670
O          -1.92576232808159    0.01381980444866   -2.37530456378346
H          -2.52454795478052    0.64784190788929   -2.77685129946813
H          -2.34567135270738   -0.26347796822595   -1.50485688663928
O           1.77792910751231   -2.41365346938379    0.79879589104098
H           2.48342317116529   -1.75469601737564    1.03322141364484
H           2.13797130353661   -2.94117050125180    0.08160016209308
O           3.45922552782399   -0.39825792922297    1.02152753044722
H           2.93679755204983    0.29334792897166    1.44634752682055
H           3.34719534340428   -0.21843003246723    0.07313550915124
N          -1.63967685212627    1.57653724519885    1.25690804129825
H          -1.82968001181443    1.68431196473419    2.24615459718403
H          -1.84894887557348    2.46090488599707    0.80989566402238
H          -0.63880872243259    1.42376818579077    1.15063994120533
