    23
        -45.36006827  Gyration_radius:  2.3945876582 Dipole_moment: 2.646
 S           0.38960820180253    0.84971243959163   -0.61282865868325
O           0.90558176415831   -0.09822213243327   -1.56068795559479
O           1.17117433422538    2.04144222611314   -0.45877937772395
O           0.24674501751572    0.15610813920004    0.77491980720932
O          -1.05845305976656    1.16327624972484   -0.97449747828810
H          -1.66390182190799    1.27136752339576   -0.14333627676621
H           1.17630885986052    0.07468665196567    1.16936687037267
O           2.66848980800786    0.09064562037954    1.57906021983190
H           3.12518825031014    0.21515561160470    0.70561771407352
H           2.84292429952101    0.88886606749707    2.08379112251584
O           3.45632367384280    0.68947552293352   -0.86195087596667
H           2.89516269113405    1.48220747025520   -0.83327018539640
H           2.95849981600945    0.07996157606095   -1.42090223174290
O          -2.14035101906975   -1.31180371375340    1.33461540335573
H          -1.28723640887175   -1.25313351202375    1.77256755645116
H          -1.92558718518519   -1.57346581768491    0.39906407430645
O          -2.62724724043145    1.21525376448216    0.98585926747906
H          -2.50598803663867    0.24592834681576    1.22341493185673
H          -3.52057537588273    1.30248086754542    0.64506679313801
N          -1.37563401221002   -1.85707273382638   -1.19083494932423
H          -0.53728844135148   -1.29825714612801   -1.33682014198579
H          -2.05235000164036   -1.55402788681253   -1.88078462879257
H          -1.14139412345398   -2.82058512487178   -1.39865102031054
