    23
        -45.36427762  Gyration_radius:  2.31881581596 Dipole_moment: 3.146
 S          -1.11550066556075    0.11253284505112   -1.02979597310727
O           0.16035665990685   -0.54886526653646   -1.22414744637801
O          -1.39072197164073    1.17608796421329   -1.96265076549980
O          -1.30581927110701    0.49985607797758    0.36671070155664
O          -2.23999462036742   -0.99486678414821   -1.31577431156620
H          -2.80826924538296   -0.55152345300712   -1.93812043056851
H          -0.17342998665819    0.57327854618005    1.29903049886069
O           1.15710018994117    1.90538191012448   -1.90484622520198
H           1.44169011764298    0.99413665086801   -2.03349595375447
H           0.18662036841228    1.85735009230053   -2.01000555805291
O           1.87043146401431    2.47475775511643    0.55920211332573
H           1.66394254508802    2.29701704660988   -0.39738023710362
H           1.52469607419226    3.34842781019846    0.75001601578361
O           1.44043002936126   -1.57958062213875    0.82942198464085
H           1.18417783172828   -1.29088493448285   -0.07422589394336
H           0.65994608848305   -2.12659750633759    1.09796672201105
O           0.72437161134060    0.57538591305045    1.81711349529311
H           1.26037509985701    1.33633561774844    1.39004454480140
H           1.16063921390695   -0.36204957697067    1.48916033141756
N          -1.07344149994972   -2.42847390123379    1.10792233238760
H          -1.33992392407526   -1.95212240874022    0.25252443955324
H          -1.54218109827272   -1.94601318184190    1.86560392441268
H          -1.44549499093039   -3.36957057407197    1.06572570101403
