    23
        -45.37283170  Gyration_radius:  2.38721331221 Dipole_moment: 3.044
 S           1.02586882668488   -1.61653922564187   -0.25238491278155
O           0.72884965246685   -0.73503883547593   -1.37228697552860
O          -0.10793670054355   -2.47961555612672    0.06200367031568
O           1.52637534796900   -0.91751477370179    0.90983272477524
O           2.19851177169017   -2.56030579813593   -0.74842869514963
H           2.54662017955674   -2.88873312849826    0.07431531279734
H           0.49680095759140    0.04538898794899    1.86051486956636
O           0.35539835002321    2.85575800572545    0.93041865987983
H           0.76356465514634    2.48856206988345    0.11300053605387
H           1.06159614806847    3.31203235345126    1.39071175979134
O           1.48453237047451    1.80978802382718   -1.26270861255526
H           1.05693297186646    2.11734884406096   -2.06460794196966
H           1.33253852452344    0.84247502231074   -1.23731652350441
O          -1.74148503735568    0.08154850287352   -1.80289270743919
H          -2.08941443043745   -0.43706880746268   -2.53001127638377
H          -0.79512000180320   -0.17896853588375   -1.71734173770282
O          -0.26291864021981    0.58135091170222    2.17519649653596
H          -1.34926756799022   -0.11462522011660    1.40087681384671
H          -0.11473939575548    1.47647057553436    1.78907161253737
N          -1.93287490201395   -0.75899770749044    0.74387251288336
H          -1.28868038842548   -1.57681350408011    0.53098058888153
H          -2.09664648300487   -0.28678985378235   -0.17027117452230
H          -2.79850621849500   -1.05971234087208    1.17745497965037
