    23
        -45.36187574  Gyration_radius:  2.36733766367 Dipole_moment: 3.469
 S           0.43809267122629   -0.71139404908798   -1.33586025728336
O          -0.45782229395010   -1.11871469197610   -2.37029291280512
O           0.25425426034562   -1.37774770426144   -0.07372881141771
O           0.31099688875708    0.83032526245739   -1.09506940725307
O           1.88132684226688   -0.81772712324785   -1.81019851201089
H           2.44906679895519   -0.24083740118247   -1.18352023164210
H          -0.57035242709335    1.03400000832544   -0.66188776639388
O           3.11826749425615    0.78348099677532   -0.29142326284207
H           2.84396881421090    1.62658238907207   -0.66058253489158
H           2.78171348553793    0.78512063095679    0.64459722923189
O           2.16824118442600    0.89913510946416    2.16172290989164
H           1.20432363989437    0.68432770187256    2.17635973227775
H           2.58176274747078    0.28395165459352    2.76953145070340
O          -2.01239959454891    1.19006356214256   -0.01956245323238
H          -2.54868898819422    1.78889406818993   -0.54278860625990
H          -2.37126951156070    0.25485033710345   -0.18283946419432
O          -0.36404644318751    0.10657903303506    2.05688046115689
H          -1.00116811585058    0.70999675379652    1.66007730532132
H          -0.16738473729754   -0.55612017061818    1.36666565795437
N          -2.66056542846698   -1.27515653013948   -0.57336248632751
H          -2.26831826970477   -1.85406220869507    0.15983093777539
H          -2.04065477566219   -1.37630676664036   -1.37657309559828
H          -3.56934425185756   -1.64924086201056   -0.81797587216089
