    23
        -45.36487457  Gyration_radius:  2.30505962367 Dipole_moment: 2.557
 S           0.32565746733719   -1.35672954208538   -0.14026879628422
O           1.29057603174725   -1.05510774128069   -1.16804191749788
O          -0.92893706821865   -0.63478983688260   -0.33669196580485
O           0.85398409060659   -1.06416085223283    1.21037907115887
O           0.02515349196893   -2.88105252143416   -0.19063178428168
H          -0.46415037478631   -3.04568393592406    0.64223338224280
H           1.14500168630693    0.40416709288702    1.37372698452048
O           1.14710088567759    1.42909842825128    1.28319544646855
H           0.15459045303563    1.64885179109527    1.30526097746721
H           1.46870791490485    1.57613332260514    0.21957288468574
O           1.71170656997995    1.51425642717717   -1.11249555417305
H           0.86569226579291    1.72836020400848   -1.59275832974651
H           1.78171676452724    0.53422704432001   -1.23247308685872
O          -0.81721606046073   -2.77469288504489    2.30401020863764
H          -0.38912730331855   -3.35917616418885    2.93380748384120
H          -0.21693751242838   -2.01425268254143    2.17448029387856
O          -1.39166356201116    1.53454017096474    1.03565036137224
H          -1.35355015316208    0.65185743639228    0.58805088500129
H          -1.78569867458364    2.14001923753698    0.40499269910446
N          -0.65147629869088    1.41261918008090   -2.31260619676449
H          -0.87463361638755    0.59961502438162   -1.73345772861194
H          -0.39986757562612    1.05349034968181   -3.22581869748501
H          -1.49662940220669    1.95841045223678   -2.43011660086621
