    23
        -45.36855702  Gyration_radius:  2.27868078839 Dipole_moment: 3.122
 S          -0.38726817289095    0.70070615890404    0.35563508434440
O          -0.18436842889663   -0.75197233000523    0.26558532672103
O          -1.60046006350605    1.11737746860722   -0.30786509514245
O           0.79958489220782    1.41224347994156   -0.12201804247647
O          -0.48349119826770    1.02320199483773    1.87947796533006
H          -1.36521557470685    0.62424424969747    2.13725329111963
H           1.97822740004256    0.67689285868983   -0.55948799530123
O           0.90467153237464   -1.28179835935403   -2.08755198439257
H           0.44276990663156   -0.55820279868581   -2.57291724048816
H           0.37304178295094   -1.37638227848326   -1.26816964826852
O           2.11256928687021   -1.15682877139170    1.43496167732350
H           2.14254440251442   -0.54683475034867    2.17491244963780
H           1.18023306082767   -1.14069632359380    1.10709935718749
O          -0.42563473251384    0.93268122325733   -2.71239374723372
H           0.13119854699812    1.71441213244820   -2.68886600399647
H          -1.00256169071846    1.00802948776230   -1.92763048459169
O           2.66153441635261   -0.07460529668952   -0.81823422047106
H           2.69996332761237   -0.60078943595583    0.04980205475657
H           2.03790609346459   -0.66768002348045   -1.47851865898334
N          -2.80273656975937   -0.15303628956665    1.91933321492980
H          -2.68064735968484   -1.15501002889175    1.84690991054616
H          -2.85650564018453    0.22193850029095    0.97528213136730
H          -3.67535523776533    0.03210912197724    2.39740065811019
