    23
        -45.36139901  Gyration_radius:  2.36376041851 Dipole_moment: 3.952
 S          -0.66439449962156    0.89643725050396   -0.29475101251264
O           0.50019535794636    0.26430905478285    0.30807216096819
O          -1.37721141102077    1.75949186775260    0.59060707235787
O          -1.57931768872826   -0.20398801418877   -0.85803501048668
O          -0.23743351224435    1.65939927214670   -1.53414061802548
H           0.37761997305512    1.06405098956049   -2.15125786127645
H          -1.91626330048443   -0.80740118894046   -0.11224124513187
O           1.36369874968295    0.22577099112516   -2.81069876341427
H           1.17860456481591   -0.67869430946842   -2.47381474927173
H           2.15268790341866    0.51886759431440   -2.30954909799007
O           1.05760872487453   -1.89166242587285   -1.20383616632066
H           1.87056102739848   -2.28980717775240   -0.88591544732235
H           0.78867485775773   -1.23623338552329   -0.53454350885757
O          -2.42699047533829   -1.53452628130855    1.14088844727319
H          -3.35733214521935   -1.32356573077538    1.24716370632547
H          -1.93701252794652   -1.05311830720105    1.87228538591944
O           2.87386767929427    1.03321862568886   -0.73363800557580
H           2.09105246454678    0.75738439218990   -0.21974325827533
H           2.97237176249441    1.97600595971142   -0.59260887463620
N          -1.09659600365959    0.00836467255424    2.81319947477727
H          -0.11672045923695   -0.23093578431265    2.72340785665763
H          -1.27593467949815    0.24933216150318    3.78025458051154
H          -1.24173636288199    0.83729978330903    2.23889495417123
