    23
        -45.36139911  Gyration_radius:  2.36396167213 Dipole_moment: 3.955
 S          -0.29193173466065    0.57737042298688   -0.95551937612090
O           0.24982347924159    0.44671215737536    0.38932824919999
O          -1.30933967859842    1.57103334761864   -1.07507394797744
O          -0.80138892295858   -0.80018735084018   -1.41157281662935
O           0.83638784503411    0.86800007748356   -1.92648214663437
H           1.64356849010571    0.20411618630896   -1.77871590823348
H          -1.55774818417727   -1.11948160592326   -0.81184135123915
O           2.75467445720783   -0.62857809599369   -1.35401935488688
H           3.12702936074735   -0.02871497539682   -0.67488525353568
H           2.33319547339919   -1.35259425873445   -0.84022800831025
O           1.39470170444633   -1.98658754971699    0.50754447228981
H           0.84448692113305   -1.18436761923564    0.56689667321140
H           1.83437075899047   -2.08028667032575    1.35503729288245
O          -2.75938419243212   -1.38666077339232    0.10742291132812
H          -3.55703629402816   -1.32160877999223   -0.42245135912719
H          -2.74436782766906   -0.58098144504304    0.70542052856862
O           2.84201111640445    1.17003501419139    0.64658811270990
H           2.92031757840750    2.09598636443058    0.41215424656934
H           1.88622600104268    0.97684121469835    0.69349935070223
N          -2.51779551427360    0.89328516402608    1.40756652614579
H          -2.23128171183201    1.39576964012931    0.56885350089229
H          -1.69269356071698    0.81925287301302    1.98992276023016
H          -3.20382558497279    1.45164665246765    1.90055491769029
