    23
        -45.37622494  Gyration_radius:  2.25361975665 Dipole_moment: 4.589
 S          -1.27816052011802    0.03264302936132    0.38160454839157
O          -1.96685891053343    0.15882583630796    1.63781284211283
O          -0.10504710642504   -0.85387901772923    0.48066057053630
O          -0.71049269620094    1.44850841016084   -0.03289160945572
O          -2.09781170172316   -0.32851207199947   -0.76496050245337
H          -1.05070488068126   -0.08991562426206   -1.86191613921856
H          -0.01871294056481    1.72253715098621    0.61959116121185
O           1.82830481764884    0.40713806379271   -0.81220423764659
H           2.00379709640983    1.20092640105681   -0.29844893852263
H           1.28923791214989   -0.16050771925893   -0.22093944730960
O          -0.18029959293958   -2.66237519218914   -1.47055560393558
H          -0.08828826297456   -2.13381914559552   -0.64653368483045
H          -1.08237432644508   -2.98947719294795   -1.45915644134682
O           0.21560249715023    0.02731359911845    3.10863818996103
H          -0.69393495807856    0.08758233977120    2.73911830738057
H           0.56851021784653   -0.78135912877818    2.72585252941604
O           1.19631012324066    1.98324809251629    1.67845898241746
H           0.94482448646558    1.24685680883293    2.30341543132927
H           1.07390049636307    2.79718254442580    2.17073990776682
N          -0.17302384972505   -0.21660201182953   -2.47022321991789
H           0.63820787711876    0.23628164160948   -1.97662433191968
H          -0.29226305278648    0.12252111033947   -3.41844231910439
H          -0.02072273519767   -1.25511792368375   -2.41299598485378
