    23
        -45.36893101  Gyration_radius:  2.29131946939 Dipole_moment: 5.435
 S          -1.53892772541485   -0.01417835482621    0.01682425373410
O          -0.50205567120258   -0.84018703482188   -0.64184353195588
O          -1.65784749554831    1.27380639030510   -0.61417903059699
O          -1.25495264579930    0.07085068996859    1.44614455958900
O          -2.89317658863007   -0.76369245675786   -0.15972356826312
H          -2.69657102704872   -1.66645663914498    0.15405766846210
H          -0.03033274280631    0.79389919531806    1.84930951770741
O           0.49742835061992    2.71428795837085   -0.13262203882807
H           0.97468865329750    2.23024362773439   -0.83707643961843
H          -0.43363181148317    2.43672885761077   -0.27622738130007
O           0.90044337713416    1.24881746351176    1.86759633391573
H           0.80561923487866    1.98546511047732    1.13272573861703
H           1.51686454086128    0.49136714150403    1.40930881525033
O           1.09689619198928    0.84772344015195   -1.98867870855333
H           0.47525733775786    0.21689638128807   -1.57041850543721
H           0.65019554475153    1.15895717175860   -2.77817469979879
O          -1.61213014929880   -3.06224558108855    0.20269524607063
H          -1.74725956706740   -3.68249655649918   -0.51715940745662
H          -1.00072611353920   -2.37354771598180   -0.12825855459169
N           2.06627182529801   -0.57763591142381    0.57161035368086
H           2.64966225051375   -0.22398116759822   -0.17712251491123
H           1.19803221831459   -0.91381593154548    0.14817071119974
H           2.53625199241932   -1.35080607830159    1.02304116317359
