    23
        -45.37140814  Gyration_radius:  2.35021236894 Dipole_moment: 4.220
 S           0.44089001424781    0.81316628779958    0.55729342186427
O           0.53925631772837    2.24157849490432    0.48491665511992
O           0.04437684408103    0.22407380946033   -0.76115328932118
O          -0.76510125829127    0.42584802401027    1.50381417392472
O           1.58929009047633    0.10701327953752    1.06762378554640
H           1.97766910093010   -1.56914845073468    1.03470044832606
H          -1.36774221923997    1.23030385255399    1.48691176136674
O           2.16549072932079   -1.18563218373442   -1.71171529041648
H           1.41175935900514   -0.61272363639859   -1.47428974606328
H           2.94018977907237   -0.62160941229830   -1.67849244725469
O          -2.02237615023075    2.61924021343591    1.11645777507173
H          -1.12900885510585    2.98930492647690    1.02673565465873
H          -2.29779714073427    2.43073294534775    0.19579518500968
O           1.89741514870165   -2.46506083657362    0.63569230445310
H           2.18291956132700   -2.30788873315349   -0.28874350401672
H           0.41691026633319   -2.39550413650459    0.49082393907475
O          -1.95457977605242    1.84881091824725   -1.46888716681564
H          -1.58391252758550    2.55109613477698   -2.00683596308403
H          -1.21459557948892    1.23598238972024   -1.28669883380087
N          -0.60699975584734   -2.02596951156434    0.31234170590239
H          -0.44819971819089   -1.14817276662816   -0.28197797507110
H          -1.00468863951685   -1.68182639119288    1.18729923196694
H          -1.21116559091550   -2.70361520752035   -0.14161181645252
