    23
        -45.36747198  Gyration_radius:  2.31723297066 Dipole_moment: 3.149
 S          -1.21299739258018   -0.96347898452816   -0.26471487977030
O          -1.11926073489535    0.44299715282942   -0.59213331612393
O          -2.25072773741653   -1.29223349762911    0.66401022200769
O           0.15301442482009   -1.43159890307629    0.28104958999558
O          -1.35591662412348   -1.77236423003745   -1.54599795641704
H          -0.78529269880520   -1.26812651139708   -2.24265125157894
H           0.42993154411395   -0.87215689343326    1.12036960444038
O          -1.86055957761406    0.22170184502474    2.82403142839343
H          -2.14090966071961   -0.28194099314372    2.03258285075889
H          -2.23771168166623   -0.23756256059048    3.57727362612062
O           0.75158779427050    2.03726257123354    0.35905517889226
H           0.35882770211587    2.88098227474808    0.58993751957298
H           0.03192267396173    1.50638073152934   -0.05065736824430
O           0.03619260377693   -0.27947590345170   -3.01998666382229
H          -0.44463066744881    0.51947168614101   -2.78119151931446
H           0.90798480190342   -0.21677683513272   -2.52488130088264
O           0.72146855440969    0.07151362662469    2.20204336203354
H          -0.17181120393269    0.19701568581758    2.59702903950008
H           0.90297429145770    0.88468321837409    1.68607250589897
N           2.15749024402879   -0.04608047918712   -1.44420631866539
H           2.03800913146430    0.81734545722434   -0.92491735440413
H           3.12386929913077   -0.10819498137524   -1.73772082491166
H           1.96654492373723   -0.80936347655477   -0.80439616346634
