    23
        -45.36483860  Gyration_radius:  2.29277099103 Dipole_moment: 3.361
 S          -0.14126623217670    0.03826638538760   -1.53234347811958
O          -0.54120323548989   -0.94789570306949   -2.48883787147044
O           1.07533855290234   -0.27672120914696   -0.81615387998944
O          -1.28086576304032    0.22241026954853   -0.47855944134773
O          -0.04573909288412    1.41079167897474   -2.15172455236341
H           0.56434785842720    1.98962250424934   -1.49321605280875
H          -1.37482290601729   -0.62908773435515    0.03550950196918
O           0.36032913495345   -3.01393677187659   -1.06281799493753
H           1.21842986060003   -2.63882513696311   -0.84243526370838
H           0.02238066678969   -2.45348185540303   -1.78714546308211
O           0.70324042589643   -0.43707644607535    1.88266096704579
H           0.01708759221303   -1.11006277125658    1.92576373601880
H           0.98454324154234   -0.41403537896117    0.95278228148049
O          -1.34928698097438   -2.09690809590914    0.69347398172454
H          -2.18567893903719   -2.55394508536703    0.58168168982772
H          -0.69505984380703   -2.56586570462379    0.10482566736388
O           1.40226548568216    2.51532328665370   -0.47574495106060
H           0.79223061756207    2.53191170439899    0.34386249005092
H           1.99200456511839    1.76540750046621   -0.34056975460089
N          -0.20987328045950    2.26427286892807    1.55377142937586
H          -0.29361759827514    2.92017054740645    2.31899571561007
H           0.11208505247189    1.36756810722981    1.92386781044088
H          -1.12686916169872    2.11209704952928    1.15235342209622
