    23
        -45.36483861  Gyration_radius:  2.29288437009 Dipole_moment: 3.362
 S          -0.28919001787312    0.67518573679042   -1.35335741269642
O           0.52890670742294    1.44057404130698   -2.24339641396173
O          -0.50065845540058    1.28284283942404   -0.05786347285159
O           0.37212050209265   -0.72204185335536   -1.12227039415761
O          -1.61027905877384    0.30966886872876   -1.98411485713422
H          -2.26276971124417    0.05841881662080   -1.17686168654322
H           1.23755903057255   -0.58523461854540   -0.64213970127450
O           2.08603458471756    2.42730327878782   -0.31563325200189
H           1.38077534487906    2.67813724073784    0.28876763807731
H           1.63867666282961    2.27156122374104   -1.16925211942643
O           0.40567104296279   -0.26525572615509    1.99892233380865
H           0.04118309661731    0.38694765754894    1.37756487640686
H           1.32663038086369   -0.37518003613840    1.74325774113147
O          -2.91160073967928   -0.19814296110300    0.05907622863952
H          -2.43413375467138   -1.03268096463068    0.40513994541072
H          -2.56497421959510    0.53127071408068    0.58471682555051
O           2.58370998282245   -0.10820010288581    0.09829026614673
H           3.36993540134409   -0.35566491090022   -0.39308607429769
H           2.50916474119847    0.88338830038562    0.02353300600017
N          -1.43507323519063   -2.17251302860648    0.89754297086432
H          -0.77773115851215   -1.66101079037590    1.49000181080705
H          -0.92239316083607   -2.49047794041527    0.08438237243217
H          -1.77156397653500   -2.97889578514834    1.40677936908630
