    23
        -45.37675825  Gyration_radius:  2.29631684959 Dipole_moment: 6.053
 S           0.15970080041229    0.97555699610226    1.00725943272962
O          -0.87138770188933   -0.03035701254725    1.28911605154059
O          -0.14162144323791    1.68982878008636   -0.22625435976372
O           1.48735790738538    0.38961957260564    0.98925661845397
O           0.08250390387977    1.99361626942278    2.19076166629464
H           0.78391653292441    2.63008233543052    1.95069552905369
H           1.62213287459339   -0.70439715757441   -0.34556036575222
O          -0.37851136959114    0.10360853145934   -2.31350048256449
H          -0.27521441701403    0.87088848559942   -1.70557972253847
H          -1.44692906870622   -0.55956660701635   -1.59170808995889
O           2.02833786303247    3.04221501402379    0.74807427632776
H           1.39157532409229    3.00364449586588    0.02222726233335
H           2.39865463398364    2.14976961331301    0.79740827649782
O          -0.33488360430303   -2.59681510701731    0.74782346663650
H          -0.44075197849308   -1.69046285072138    1.10602599513218
H           0.12666355606397   -3.09672812492203    1.42266660240696
O           1.40627334679324   -1.35151630546933   -1.04543948909531
H           0.39309960273551   -0.47381404003819   -2.08142836442287
H           0.89942686798661   -2.03867992132599   -0.58610927770362
N          -2.11027646733171   -0.99118406746908   -0.80285211580077
H          -3.09648339673022   -0.83574983048730   -0.97893896080930
H          -1.78210847280489   -0.49842325643788    0.07836070583302
H          -1.90147528375542   -1.98113579286770   -0.67230467480786
