    23
        -45.36638235  Gyration_radius:  2.37502396814 Dipole_moment: 7.403
 S          -0.47151843862106    1.05433484778293    0.25249797597791
O           0.64462603957281    1.44372299952204   -0.55337663707243
O          -0.12026720117277    0.30844098790984    1.44617289144461
O          -1.46238802428327    0.21649812671214   -0.56127362919765
O          -1.29647216388570    2.28196856004228    0.64423778365964
H          -2.02564838849163    1.89052104480690    1.25004798691279
H          -0.96206924504708   -0.61319755835939   -1.02182436602771
O           1.46318027288741   -0.06668598061252   -2.87277719426594
H           1.06383036445533    0.77113183103335   -2.61494037154055
H           2.24997096457961   -0.13995727919833   -2.29210049410016
O          -0.14460103717818   -1.64122092312866   -1.54365930097032
H           0.44261067797485   -1.14754716943874   -2.18568675649565
H           0.43585773009806   -1.89672607005334   -0.80293136605407
O           1.36249029891457   -1.75112257911889    0.73736131090726
H           0.85769024591771   -0.98360636390327    1.09006002454925
H           1.46177027588620   -2.37378920848648    1.45951408852288
O           3.04196462531278    0.01389179637973   -0.68642133384637
H           2.42683223937374    0.73602505321431   -0.49409731120249
H           2.72151846967314   -0.73580825987136   -0.16700542980207
N          -2.84689988853436    0.87059557560385    2.10858196997909
H          -2.04065557449590    0.29705700090111    2.33524670233819
H          -3.46852998392166    0.33720373794361    1.51533381307712
H          -3.33329224899504    1.12826982031403    2.95703965314980
