    23
        -45.37675806  Gyration_radius:  2.29641172137 Dipole_moment: 6.053
 S           0.96330393754216   -0.19812912690510   -1.01180867137951
O           1.27196903342339   -0.85752576650153    0.26275338979196
O           0.83513193234805    1.24131447820286   -0.82899045357354
O          -0.20941588717080   -0.77576152487964   -1.64237913365967
O           2.20121405389150   -0.46444765914258   -1.92830356560676
H           1.93918302268736   -0.00997887251198   -2.75255074931984
H          -1.60848561621514   -0.44947128110582   -0.67575544022583
O           0.66875855245038    0.94870146388144   -3.54747069922563
H           0.65529779882611    1.60020023148568   -2.83411510583362
H          -0.00033943229924    0.29616918873823   -3.29688170970478
O          -2.19384778471051   -0.27438294937415    0.08697318402273
H          -1.66546148405152    1.23825151244750    0.63920109878107
H          -1.96209337686393   -0.96371725098320    0.72817051187054
O          -0.99729169206371    1.90576552248258    0.94005124808847
H          -0.24132262000854    1.12664764162477    1.90135723712440
H          -0.32857681664369    1.89468623836727    0.21777292800461
O          -0.70137910949524   -2.11913851249475    1.55954860713710
H           0.03489540438858   -1.81619112970344    0.98758015238039
H          -0.88030007405066   -3.02527208535307    1.30401222762880
N           0.40871310295677    0.36926843252749    2.40377751468937
H          -0.16341920439586   -0.37798359140365    2.79743028722582
H           1.03035809129172    0.77082429992396    3.09669844944374
H           0.94310817813305   -0.05982924934970    1.59292870237817
