    23
        -45.37623180  Gyration_radius:  2.3039747236 Dipole_moment: 5.289
 S           0.49674006854202   -1.21276966400896   -0.37724597789348
O           0.46030206514906   -1.07533086004133    1.08155143811977
O           1.67488580524101   -0.63380638134351   -0.96477190434589
O          -0.74662809665963   -0.65851731265849   -0.94136209230921
O           0.50907033373120   -2.74117187530203   -0.70473475503331
H          -0.38293047268115   -3.06138737416445   -0.47207551599637
H          -0.18934676707540    0.81795690899761   -1.67073965018368
O           0.28947162337646    1.63827350535799   -1.89004093760891
H           0.38970841505280    2.51672004970138   -0.41331020845714
H           1.17972616830054    1.33689604384823   -2.09570217134030
O           2.44422039257031    0.96390264273155    1.03628658131008
H           2.21388276316388    0.36631160390921    1.75268188661964
H           2.34205176883894    0.41831991211386    0.23168125217131
O          -2.15244486202674   -2.80251845247426   -0.43071432169618
H          -2.59276645393074   -3.15284149064638   -1.20813129300665
H          -1.83373181835518   -1.90669926361670   -0.66898037391681
O           0.45670692108830    2.66554738622115    0.55975030041354
H          -0.55318653586338    1.73123189475385    1.05307029544274
H           1.29923754064587    2.21798924921864    0.81370407182275
N          -1.20801846787600    0.86818188775180    1.29990989741637
H          -0.54426591546497    0.02435156468227    1.36112269533591
H          -1.80758775376545    0.67706886835893    0.49815891993375
H          -1.74509672192783    1.00229114653314    2.14989188324302
