    23
        -45.35662633  Gyration_radius:  2.33161533733 Dipole_moment: 1.945
 S           0.36886985962305    0.68936206296720    0.29477216989739
O           0.01327011930367    0.72553324438368    1.69156399209087
O          -0.15089847077611    1.78046436878433   -0.47233723855326
O          -0.12038465724748   -0.66666067930919   -0.28048915505968
O           1.87598229321446    0.58855750443129    0.11325744352468
H           2.17132191926939   -0.38247978049106    0.30626678704374
H          -1.12505698883415   -0.63166199659167   -0.44248567283271
O           0.57088186326392   -1.73824773642239    2.53660840980075
H           0.36847835057134   -0.79141886358945    2.40008746812696
H          -0.26519051200882   -2.20504559356398    2.47811429331025
O          -2.45350495851613    1.81723097860321    0.92379693401693
H          -1.98684943973598    1.56238364605994    1.72752727441244
H          -1.75864126513055    2.17901246906256    0.35093246556517
O          -2.62180906318286   -0.34547651041365   -0.57998732420285
H          -2.78270713508867   -0.03898903174696   -1.47607363397862
H          -2.74807574383585    0.43938294700518    0.01342914478635
O           2.31373361794016   -1.85531041412771    0.54590664917385
H           1.78205656159869   -1.95646238494749    1.37296562305153
H           1.78789978925952   -2.23967203441043   -0.16241394312437
N           1.04087543240152    0.53699940284112   -2.91521331190073
H           1.94483977710147    0.29463242488302   -2.52641331530469
H           0.55974236438454    1.07681802679407   -2.20461343622444
H           1.21516629633414    1.16104796978124   -3.69520162359046
