    23
        -45.35662571  Gyration_radius:  2.33118894982 Dipole_moment: 1.958
 S          -0.24754064672006   -0.56326089314496    0.56454415518856
O           0.28849343677658   -0.13499643918673    1.82090224063756
O           0.28497504496514   -1.81627439307362    0.09017699615927
O           0.01093075489263    0.50412673300744   -0.53235415777716
O          -1.76712978546709   -0.59917102230251    0.62445564291876
H          -2.14263309541575   -0.49233337909881   -0.33237069995619
H           0.98623428702690    0.79571473227950   -0.50725743643883
O          -0.43640526140814   -1.85226809057669   -2.47396564590858
H           0.32884515099470   -1.51121227286438   -2.94129603448190
H          -0.14792386336976   -2.01481663543288   -1.55393464746578
O          -2.41774028883008   -0.23613897550759   -1.78268956442496
H          -2.03025287823011    0.63334297969378   -1.92357741788310
H          -1.80076435134290   -0.88627648657843   -2.19930405068708
O           2.73952368813526   -1.08459534635403    1.23475131042232
H           2.35669159171779   -1.82190749216790    0.74646490372492
H           2.01903888087380   -0.78139707552257    1.81014867217008
O           2.47811863537913    1.05537523244388   -0.28719633426596
H           2.56440644920064    1.81387575029708    0.29596528099476
H           2.76226691887787    0.26268893326255    0.23746247900197
N          -1.34776700554630    2.35733566564426    1.57958158574955
H          -0.71779830364706    1.59645059639008    1.80766046810613
H          -2.21505157274377    1.92919662701329    1.27709779751635
H          -1.54851780608796    2.84654125164565    2.44473446665972
