    23
        -45.36195005  Gyration_radius:  2.30670886336 Dipole_moment: 5.933
 S           0.07555231367261    1.48701061381821   -0.62853766738546
O          -0.77514979785308    0.31865898101812   -0.66714677199516
O           0.76599438355021    1.79626642274376   -1.83281746005463
O           1.10209611722202    1.31516160188826    0.51236156677203
O          -0.77671038000768    2.68767332174170   -0.17734937778338
H          -1.33129293098065    2.32721983477572    0.60930641304757
H           0.79952615051400    0.62199178397077    1.18706924619012
O           2.07458072610224   -0.65660833525321   -1.70014331817382
H           1.83928909520693    0.27450831559462   -1.80652973859756
H           1.44361218893854   -1.15191441860679   -2.24062087841376
O          -0.44535716321363   -1.90053409972841   -2.12448460853503
H          -0.62750964589505   -1.08652862433046   -1.61428026175723
H          -1.09317169202562   -1.92775630888622   -2.82938402817447
O           1.07677268827318   -2.19299308201296    0.29995552664468
H           1.64753068467599   -1.64089903513181   -0.27355956871453
H           0.37809614020876   -2.48942314661982   -0.29453073127932
O           0.42039979549083   -0.51521071196554    2.15864559632737
H           0.57181209644176   -1.23833218155064    1.47740559067375
H           1.14175971952830   -0.60936704676146    2.78562677028063
N          -1.98487261741283    1.36148653410679    1.66309091867299
H          -1.36867207274825    1.10948597108974    2.42624916863361
H          -2.02637075965734    0.56411325734710    1.03570159823457
H          -2.90791505008001    1.54599034274909    2.03397200537051
