    23
        -45.37185063  Gyration_radius:  2.26831048586 Dipole_moment: 3.155
 S           0.26309683503427   -0.30453411219805    1.73225356913789
O           0.04688345298909    1.09449761355299    1.40875663140027
O           1.60840856446560   -0.76473831089933    1.45338648633203
O          -0.75449742298284   -1.15048665242429    1.11601944475086
O           0.08585380067297   -0.44455896908101    3.30069804509345
H           0.84083890169366   -0.97091588571309    3.54304588466032
H          -1.45918957325199   -0.69940414795549   -0.15793008216885
O           1.71442548846548    1.11874153703482   -0.66081833779909
H           1.12858318623736    1.22833019792741    0.11341714545438
H           2.45805534694358    0.61068921145857   -0.32457314410534
O           1.11094281122489   -2.50350147462445   -0.50141926529209
H           1.43592639591461   -1.91896458245485    0.21296738060748
H           0.27376991834969   -2.84200627020127   -0.17229565840218
O          -1.74777172883112   -0.32207408093459   -1.05975375380422
H          -1.81227802352670    0.73723556772438   -0.89768289281513
H          -0.87619269165573   -0.46264115995931   -1.66859766573669
O           0.42826705813013   -0.61210554498333   -2.22817151917557
H           0.95051433644950    0.11931641330715   -1.82307157550528
H           0.75819519815906   -1.42659355785924   -1.77560728325406
N          -1.68101039673746    2.14797722742454   -0.51147807155383
H          -1.10784208598545    2.00695277051873    0.32480715494982
H          -2.51741784219099    2.65539586275846   -0.25572078620689
H          -1.14756155947228    2.70338835750425   -1.16823169632538
