    23
        -45.36546614  Gyration_radius:  2.2657526195 Dipole_moment: 9.024
 S          -1.12150540205051    1.31771364747766   -0.25037397152030
O          -1.52861716703328    2.19973071854552   -1.29938107279935
O           0.30643903420452    1.43103940809584    0.07851275375975
O          -1.32333577142520   -0.17952917812034   -0.73997626913488
O          -1.91468428579935    1.36219395190823    0.98496499755456
H          -1.50987228910853    0.15396393557666    1.57497419487336
H          -1.19547591554950   -0.14515725214494   -1.73490327884244
O           1.54756923345052    0.01371534141158   -1.81306490484185
H           1.23452920949812    0.67881950209929   -1.17112493420099
H           1.37166168998713   -0.83288559905794   -1.38195283951762
O          -0.75133796069668    0.37090991518239   -3.17498724215725
H          -1.00933512456620    1.27261779724721   -2.92948438333384
H           0.20766024152633    0.29146554026902   -2.98955976651986
O           1.21165687249523   -1.95483332728448    0.31296883707337
H           1.93465353564637   -2.56757047506671    0.16948744602672
H           1.55602762028955   -1.23915992838444    0.86947947602600
O           1.45960046265877    0.23258024681834    2.03112442738250
H           1.99180651070864    0.85253566851355    2.53134845116275
H           1.05911596875255    0.76229303326402    1.28144399435874
N          -1.01455170246028   -0.80893316097237    1.87700133435258
H          -0.85443926828910   -1.29959351221000    0.98994331564327
H          -1.56977826007900   -1.36338760128527    2.51979932558742
H          -0.08778725216049   -0.54852864188126    2.26376007906422
