    23
        -45.36311463  Gyration_radius:  2.38138217518 Dipole_moment: 3.338
 S           0.30680477249096    1.11699342194897   -0.57672633262598
O           0.94560876353821   -0.16664670992334   -0.38421160787733
O           0.80871795589331    2.15441163280231    0.26839649521035
O          -1.21575394462557    0.94698336209921   -0.38914260430263
O           0.41550224969173    1.53490887792146   -2.03712159854895
H           0.01675401863547    0.78227894823263   -2.60645183577632
H          -1.41634197702506    0.59488664865825    0.54870399628191
O          -0.48851671185667   -0.44581214540502   -3.33702104424577
H           0.26976033414360   -0.87394463288591   -3.74119360401489
H          -0.80843120415421   -1.06269595195769   -2.60989048455120
O          -1.61452079319531    0.13111758381778    1.97354233354926
H          -2.33914362668365    0.60796082880312    2.38475044840671
H          -0.77363269084011    0.48049599998167    2.40673296328442
O           0.57689412292935    1.20914119685936    2.80224550003446
H           0.71542416416874    1.78117852639751    2.02751462235338
H           1.27142895606506    0.52400536972057    2.72597442981501
O           2.42197959405101   -0.52197440763706    1.85315557308873
H           3.26023730517369   -0.09419892503841    1.66920133432371
H           1.92095317248731   -0.50624472547333    1.01645282552192
N          -1.06732751778690   -1.96794442754538   -1.25917758041483
H          -0.98557092944099   -2.97527389503476   -1.20332820784433
H          -1.92423584747350   -1.69644650029091   -0.79427311040358
H          -0.29659016647041   -1.55318006666349   -0.73813250178744
