    23
        -45.37469472  Gyration_radius:  2.24197588495 Dipole_moment: 4.325
 S          -0.03061863026620    0.61676296681013    1.45191454434951
O          -0.39369789151299   -0.01119402674429    2.68801061507709
O          -1.15737708084495    0.76096278806770    0.52465959405311
O           0.98805360611917   -0.36004555872724    0.69080796890295
O           0.71752450008009    1.86303298856259    1.56257507189519
H           1.35512915246666    2.03540609014721    0.26925644310258
H           0.74673697458604   -1.25968202664142    1.06113113006040
O           0.12353516305778   -1.25987025669954   -1.86463939376967
H           0.67731350046085   -1.11535723339969   -1.08556752407934
H          -0.69769970661690   -1.63371139600949   -1.51232898771619
O          -0.07432032985967   -2.45297457936615    1.72201196416893
H          -0.84110951995692   -2.48282803059063    1.12343667394484
H          -0.31454102127908   -1.82502764068529    2.42658719590753
O          -1.99653902004799   -1.63709343050204   -0.06289132379052
H          -2.95300541388577   -1.68253525468715   -0.02806935619539
H          -1.75585139383680   -0.70826538234364    0.18083878201266
O          -0.42862513039250    1.34484241261207   -1.93365528095730
H          -0.27258111343508    0.40699478014769   -2.19112492922288
H          -0.89430978856626    1.26825631800906   -1.06960078259270
N           1.74572541481825    2.04838855459433   -0.75533749918134
H           2.13700680375954    2.95668429085680   -0.98324191290484
H           0.87194259434329    1.80885551649253   -1.37746339590374
H           2.44730832079436    1.31839813009676   -0.83730960715575
