    23
        -45.35805328  Gyration_radius:  2.45184755791 Dipole_moment: 2.241
 S           1.09745041586361   -0.88382598415492   -0.18239541808314
O          -0.25251811322398   -1.18609265985341   -0.57690390013809
O           1.93083613733838   -0.37369629478903   -1.22816332942430
O           1.74415690814951   -2.17575266033842    0.42092921505078
O           1.12291977284299    0.07207153477053    0.99742336504587
H           0.38047369824645   -0.14201841757750    1.70399895874995
H           1.74539445541545   -2.81662173133765   -0.31848795576178
O          -2.56309938583346    1.12523698925408    1.69139359442219
H          -3.41932887329245    0.69433153768557    1.66843499942486
H          -2.28007272103426    1.20422024634542    0.73556280105916
O          -0.66519935639189   -0.31031126469617    2.70355173249920
H          -1.43541914516753    0.22091683014038    2.32791160828238
H          -0.38383687487207    0.15359876684342    3.49602988851524
O          -1.76595319646309    1.08158002778586   -0.78946737782948
H          -1.38246280716586    0.19034671954400   -0.80922282361520
H          -1.00296509155521    1.67747526517290   -0.95752412406574
O           1.28031705204726   -2.98074287981391   -2.04512383484899
H           1.75634644876516   -2.21741298119168   -2.39107702563428
H           0.36480980876540   -2.69451979659076   -1.94251642880078
N           0.65767156256079    2.29576291576172   -1.12220606141252
H           0.90387766478822    2.95695944754675   -1.84893938140625
H           1.17780634829320    1.43913270330378   -1.29205463752925
H           0.98879528195698    2.66936169618029   -0.24115384448427
