    23
        -45.35805336  Gyration_radius:  2.45189161159 Dipole_moment: 2.241
 S          -0.58417360456408   -1.29504164926846    0.03231337039699
O           0.24712931436458   -2.15541512030339    0.81786227957020
O          -1.11291427609276   -0.15677799221988    0.73533796652791
O          -1.77802376107661   -2.11662453745877   -0.56027382106821
O           0.16640180251775   -0.86780335689732   -1.21682136400258
H          -0.30860198144644   -0.08355531339675   -1.72255308009490
H          -2.28518599664760   -2.41040763427397    0.22325949931051
O           0.77281761338842    1.80092731231236    1.03420194741040
H           1.53995933791867    1.18988019110314    0.97396566366351
H           0.00068301472992    1.21374588931685    1.06215573938452
O          -0.84955190328213    1.05434980428800   -2.45265571197313
H          -0.45928569948907    1.04568302728796   -3.33015259419815
H          -0.44971385264500    1.84841509174805   -1.97721686465285
O          -2.28709337722052   -2.32529911930036    2.01698340407027
H          -2.22659685904646   -1.36481152203918    2.08330229274663
H          -1.39529692878693   -2.65557085314809    2.17388189907603
O           0.27048119855378    3.02635191138876   -1.21013310880594
H          -0.32903036961327    3.73190246502485   -0.96088019927966
H           0.55133257794303    2.60049689637212   -0.34993050562042
N           2.52539330139587   -0.26918988172979    0.71618694246345
H           2.82752234067763   -0.33073497668091   -0.24838418128948
H           1.83879306416480   -1.00543298678960    0.85660135335745
H           3.32495506425133   -0.47508763531032    1.30294909299211
