    23
        -45.35944857  Gyration_radius:  2.35688068374 Dipole_moment: 2.998
 S          -1.59403515805590   -0.06063524971333    1.28335458008978
O          -2.05151750885330    1.26337087835806    0.96268145188280
O          -0.24452112940466   -0.11314451079717    1.82700816046948
O          -1.74615085004968   -0.99300884556224    0.16281865759885
O          -2.53488140770402   -0.60828004522586    2.43620237150132
H          -3.38689866850723   -0.30953415985604    2.13665000212924
H          -0.70047073772085   -1.71960920066169   -0.48366371595298
O           0.15319282234589   -2.12324130742683   -0.95108720996502
H           0.32077887119886   -1.48338434063550   -1.76204139025299
H           0.90730980992969   -1.95712719119651   -0.27088376493671
O           0.56249733478100   -0.39456828504314   -2.72704534205106
H           1.49030330215184   -0.20019700695829   -2.87168696998190
H           0.17234029582361    0.40239115599725   -2.21271846326328
O           1.74177687907361    1.40992694107977    0.91379370697916
H           2.04351848909023    2.03802981760784    1.57152390939084
H           0.96103878761932    0.96393952123036    1.30717866174803
O           1.80678696347556   -1.45203372035686    0.85811935592896
H           2.27728453182576   -0.63617873369359    0.64080272743142
H           1.07354789813392   -1.14655730510063    1.43548959462806
N          -0.25546376428926    1.57183799215109   -1.24961390654235
H          -0.53259798809759    2.41904628050039   -1.73039476584370
H           0.54814644100469    1.79709037871230   -0.66719441292776
H          -1.01198522374565    1.33186692663708   -0.60929324807352
