    23
        -45.37383457  Gyration_radius:  2.27538279656 Dipole_moment: 5.654
 S          -0.51595364999684    0.10753110720183    1.37438902953200
O           0.25632631056988    0.99807668660971    0.50402408683363
O           0.22405991101525   -0.36459689621233    2.51259891512634
O          -0.90649069081490   -1.13215758942405    0.47644709233732
O          -1.80562818107544    0.72671979144230    1.69060590632450
H          -2.04045059916959    1.46143312471090    0.50685552521070
H          -0.05317990553470   -1.62650519090201    0.22467034541842
O          -1.48326038367805   -0.10465892996378   -1.99116896997756
H          -0.54627651201323   -0.02430926730110   -2.23474468034324
H          -1.48385909865046   -0.70953638428389   -1.22808965772073
O           1.30540408802601   -2.12939004612716   -0.30086346435080
H           1.44986841167039   -1.48021050026002   -1.01058106091618
H           1.91608224603494   -1.86651362130132    0.42615726339807
O           2.62471676497092   -1.12669231812942    1.77791051636616
H           1.78103292298800   -0.73770564320227    2.10729814521226
H           2.93291877565909   -1.70392156551195    2.47901994827660
O           1.25108245488091    0.21313900654646   -1.74453609494517
H           0.93458245515557    0.54337382312969   -0.86080236431522
H           2.07113485516034    0.67560789875202   -1.92167281197872
N          -2.01689489666354    1.98344579276268   -0.48058315715576
H          -1.88785029973074    1.20741856901400   -1.20371510224675
H          -1.16519107819372    2.54070902269727   -0.45203145289583
H          -2.84217391062084    2.54874312974359   -0.65118797719249
