    23
        -45.36860115  Gyration_radius:  2.27460359488 Dipole_moment: 3.546
 S          -1.74322287215667   -0.72495859787131   -0.34270644512811
O          -1.14136171758113    0.05204878170578   -1.41127608233082
O          -1.47052300152484   -0.17639671798273    0.96958329414921
O          -1.39790590679559   -2.14216380188944   -0.44837723901817
O          -3.31086223081095   -0.65294648272166   -0.54016839565675
H          -3.44867268115362   -1.22650694909781   -1.28733206762803
H           0.04047076422493   -2.41236685702878   -0.23925425098079
O           1.06155306652809   -2.33298766019368   -0.07224042424629
H           1.11369084163064   -1.81251824162778    0.84049520935923
H           1.35504241028373   -1.60224122730701   -0.78054456537616
O           1.96837946207144    1.34084664409179    0.50934688096595
H           1.07914208265473    1.80949424799383    0.41578907732195
H           2.62592539861909    2.01356566714689    0.68831564796460
O           0.94624477584471   -0.77903222903864    1.89183180842254
H          -0.00078468017052   -0.55740069617296    1.75745026191644
H           1.43968615360200   -0.00159105583977    1.56574902962647
O           1.45124122891979   -0.36131883341223   -1.55645693085065
H           1.79540037119062    0.30259745310247   -0.92796298438370
H           0.49303873822351   -0.15053472956453   -1.66176477467830
N          -0.43804481712131    2.34338577021706    0.20723748627306
H          -0.65172575967170    2.32431410457242   -0.78351541285054
H          -0.82234737560174    3.19439552942876    0.59847656685893
H          -0.94436425148002    1.55231589112362    0.60732430998041
