    23
        -45.36638243  Gyration_radius:  2.37525539304 Dipole_moment: 7.408
 S          -0.40365737782807    1.08480361717465    0.23722505908467
O           0.63018069664422    1.37983721500487   -0.70678654698650
O           0.05014776978912    0.39485147842189    1.42994615997577
O          -1.50699943829598    0.24360055088547   -0.41173675338467
O          -1.13646836944560    2.36653068131629    0.63881893413416
H          -1.80873740703128    2.04166010118890    1.34214610770089
H          -1.08944736961490   -0.63041924195036   -0.87261975770024
O           1.13591812372001   -0.29095080887346   -3.00450905073282
H           0.79731134882704    0.57594938013967   -2.75580996907783
H           1.97895471152927   -0.36442809746266   -2.50906868331787
O          -0.37018835376410   -1.71901688149625   -1.41606803334752
H           0.15968335117477   -1.28730437690335   -2.14655628849684
H           0.27900176456508   -1.95538603195895   -0.72784449856524
O           1.37306620361169   -1.76125323111174    0.69226729517659
H           0.93752551572584   -0.95454262221894    1.04983593621551
H           1.52693441416593   -2.34642513851451    1.43589416882083
O           2.94760897034927   -0.15270296671365   -1.00969522272871
H           2.38286033840808    0.60400975243411   -0.79682017904395
H           2.66017142037080   -0.85753339715395   -0.41377462391180
N          -2.56658659889100    1.10875011629971    2.34531326488479
H          -1.76194998719991    0.51455809782197    2.51828587460721
H          -3.26970871927618    0.56980352620867    1.85740044427429
H          -2.94562103755552    1.43560825746798    3.22415636240146
