    23
        -45.35658490  Gyration_radius:  2.50097001441 Dipole_moment: 5.641
 S           1.59340760276022    1.84579843118211    1.11442301887067
O           1.84078824092629    2.16803484982995   -0.27877798671837
O           1.81265935670200    0.45595326563966    1.43349415676494
O           0.25839925735209    2.30112357590349    1.54017186954057
O           2.62001806176569    2.69259640611664    1.97074984306050
H           2.47058829935608    3.58264615520838    1.66528544868763
H          -0.73188687343660    1.39529567578028    1.08500710156889
O          -0.08389855250781   -1.32941126653319    1.66266098184045
H           0.10585748512269   -1.86528865856102    0.86660264862462
H           0.72130125404958   -0.77473128789758    1.78463695108111
O           0.23219185871185   -2.31324839326875   -0.83942148745928
H           0.44719296965698   -3.19480720540117   -1.14468338934924
H          -0.67034695292502   -2.09013174716664   -1.18593147093915
O           0.22957620383490    0.48066998803967   -1.41273698194582
H           0.89186458881297    1.15829536233872   -1.11907458628318
H           0.65969766709889   -0.38046206177352   -1.31358895222015
O          -1.27159259303422    0.60187660992927    0.62303235116553
H          -0.90879501998619   -0.26065081250491    1.13747906853324
H          -0.79241132186542    0.54931172587361   -0.29406138205971
N          -2.14983248461907   -1.41205668736464   -1.73738564840800
H          -2.73849871988741   -1.92343689073816   -2.38269021832489
H          -1.80937566649271   -0.58264942281172   -2.21155142530198
H          -2.72690466128126   -1.10472762194820   -0.96363991066597
