    23
        -45.36780635  Gyration_radius:  2.24981382355 Dipole_moment: 3.032
 S          -0.76457830973448    0.48870129273789    0.98545379044108
O          -2.18067383403364    0.27046311108119    1.06194994500316
O          -0.31867376735125    1.16355723992602   -0.23432370167631
O           0.04017775592865   -0.69857240548923    1.23170457172691
O          -0.42580083738020    1.51261052110430    2.16908557120112
H          -1.16404580747184    1.38002553239910    2.75472465819920
H           1.78907510716349   -0.58020109128108    1.02950150737440
O           1.29237985830677   -0.31107218624824   -1.57303604004207
H           0.73934460704475   -1.24157056012437   -1.44376173079740
H           0.64093166186421    0.37218067338323   -1.21131339794437
O          -0.12600309229349   -2.24223333182393   -0.96196703207719
H          -0.09267491475672   -1.99882040195653   -0.01714801378847
H          -1.02558669039118   -1.91599792304734   -1.26736609063088
O           1.90386152435583    2.27180570191294    0.82435193465848
H           1.65489566017672    2.56509604672300    1.70314834153794
H           1.06611211163295    2.05976814403752    0.37546872085987
O           2.59913307252771   -0.29288576015274    0.56034563370452
H           2.01265513839512   -0.34617510621879   -0.80051686856517
H           2.64653906401055    0.67510713363891    0.71586976455382
N          -2.36014019240653   -0.96277681654858   -1.48548242887493
H          -3.23861012505598   -1.43070453209615   -1.67144628668960
H          -2.25345402857854   -0.22659281089515   -2.17257572768881
H          -2.43486398195638   -0.51171247106446   -0.57266712048656
