    23
        -45.34623305  Gyration_radius:  2.45796801212 Dipole_moment: 2.884
 S          -1.24730679099539   -1.53380773185596   -0.34892676987803
O          -0.89933105952492   -0.52297964741451   -1.30630525414375
O          -1.18135357064712   -1.15607574865274    1.02259424593552
O          -0.45678300863617   -2.81033280301398   -0.62297938876319
O          -2.71059616195214   -1.99790797994909   -0.66109178682065
H          -2.78962301918233   -2.00883311273546   -1.61218674886354
H           0.53987131820708   -2.65165374504544   -0.34115347355579
O           1.70428129352739    1.89505664414713    0.95633321886293
H           1.64655724418976    2.83213106692771    0.76248489618129
H           0.87836654708266    1.65993816765834    1.42997045267281
O           1.75083768551351    0.07587300069492   -1.02656801543833
H           1.82959906015776    0.75529274838320   -0.32130770932920
H           0.81082836403773    0.03953842486919   -1.26748114195561
O           1.90518898733474   -2.28098791903406   -0.04307568856328
H           1.95359490540786   -1.32659015474892   -0.38558780009950
H           2.52241711689024   -2.79009176143521   -0.57446226392236
O          -0.62938055289457    1.22373264201922    2.13785202818498
H          -0.87293601398489    0.37478721164948    1.72194671640221
H          -0.62255341290338    1.06103652087595    3.08297353452067
N          -1.22941776580975    2.47505681061963   -0.74297584065847
H          -0.29170620132089    2.76906332996291   -0.99138747519696
H          -1.35371984762515    1.54760146058487   -1.13382122152048
H          -1.25683511682904    2.37015259548156    0.26515546597485
