    23
        -45.37013300  Gyration_radius:  2.33779603228 Dipole_moment: 3.816
 S           0.32525682586289    0.95268088581015    0.02595495746537
O           0.19689212087158    1.83232021667633   -1.12338515695631
O           1.48739858515579    0.07430428508015   -0.06103622518035
O          -0.88927653287232    0.18522774997846    0.27871347442403
O           0.57006034439604    1.84231628130259    1.29447358284945
H          -0.03081910295164    2.60726052998275    1.17220872445261
H          -1.16603984757172   -1.12666261908137   -0.83976983451362
O          -0.96582212428491    3.72475378892690    0.26835380008151
H          -0.71676300103186    3.13569678769782   -0.47288853637495
H          -0.57349448190979    4.58013421412882    0.07826882354464
O           0.94093016972850   -2.34845000881495    0.25627623842324
H           0.38437887470712   -2.23566478699848    1.16761664563217
H           1.32371910572119   -1.39873543498531    0.13949407482503
O          -0.86752158507933   -1.87158752950748   -1.40262258690888
H          -0.38988955625210   -1.42507137476205   -2.13667657551566
H           0.19558910455453   -2.34360934754774   -0.49048507512848
O           0.67921825366164   -0.20541949384803   -2.80185064204679
H           0.44859878324354    0.62318178034798   -2.34229480849316
H           1.59813893905824   -0.36709952315025   -2.57426935453741
N          -0.47547013399645   -1.70844769668704    2.24614888035872
H          -1.27728263913272   -2.25568986558585    2.53070527043029
H          -0.80278270685967   -0.89266155459656    1.71420000851780
H           0.00498062497499   -1.37877727436413    3.07286432466400
