    23
        -45.36069345  Gyration_radius:  2.30882011527 Dipole_moment: 3.160
 S          -1.72996490623924    0.41501246906622    0.71924637313800
O          -2.30867074359688    1.71278483517708    0.71718070282597
O          -0.35449856473638    0.32755079488713    1.14320439405734
O          -1.88109264926009   -0.19467838999569   -0.68556291439083
O          -2.57354967235726   -0.53609864781521    1.61424951025342
H          -2.05738039888581   -1.37754025015630    1.66719839395600
H          -1.14740476754450   -0.86241338736651   -0.93005382799995
O          -0.01672818771275   -1.78662205382146   -1.33859339120905
H          -0.20942107607167   -2.13274305219360   -2.21274116394401
H           0.64945675375460   -1.02274885077771   -1.48770103761333
O          -0.33039359824912    2.32990534863515   -1.11524131430356
H           0.14750663072508    3.03402553318113   -0.67096215810702
H          -1.14171633782413    2.19379549974775   -0.60684202326689
O           1.44392724503750    0.26539481797527   -1.71058339410767
H           0.79213954055393    0.98730982066535   -1.67037234868684
H           1.98775567058068    0.37816878123194   -0.89607408664841
O          -0.64778822153864   -2.31399015957500    1.37860508261820
H          -0.14948874645804   -1.49133745033134    1.50284977201555
H          -0.45707639647974   -2.57901664048747    0.46926155442649
N           2.50906305214574    0.63229323071659    0.75622101756900
H           2.93135571497200    1.50644805350591    1.04218288314569
H           2.99871521166294   -0.11495991886304    1.23184895243789
H           1.54525441752159    0.62945961659371    1.08267902383110
