    23
        -45.37877985  Gyration_radius:  2.32782764727 Dipole_moment: 5.065
 S           0.44225733583665    0.01330015937342    1.35921507096365
O           0.72041186653883   -0.97079795643827    0.30368082581156
O          -0.45656018793336   -0.51435769214060    2.35280101104975
O          -0.07342553991886    1.24909761324474    0.73601857239858
O           1.78813117262078    0.36693681677927    2.03856935021061
H           2.20898606450830    1.02347673157292    1.41913952545836
H          -1.34305862983198    0.89799162360933   -0.02956854774360
O          -0.54623921690809   -1.10520275655771   -2.02030949390254
H           0.13389936199780   -0.71394314286840   -2.57643651141031
H          -0.09953409713302   -1.25606500678370   -1.15773428885618
O          -2.74085000800847   -1.28250522005866    1.36465573699829
H          -1.93832291570169   -0.99868713990935    1.87228213420336
H          -2.62141650213677   -2.22064997811441    1.20344077385854
O           2.36352565011897   -0.10384328655751   -1.54192921862310
H           1.78670246403602   -0.47570722052986   -0.83169344561751
H           3.15427227696627   -0.64539373446642   -1.55129388309048
O           2.41911524367719    2.02197972485238    0.14949397172499
H           1.46140906288434    2.17086885106583    0.18700787081315
H           2.55582942118450    1.42049484561593   -0.60854325072594
N          -2.14334181484550    0.42194973206590   -0.56221597979334
H          -2.56365324209835   -0.25878584529853    0.13021078054028
H          -1.68216635950864   -0.12847690003063   -1.33119166125084
H          -2.82597141634092    1.08831979157344   -0.90559933301363
