    23
        -45.37540474  Gyration_radius:  2.35617674678 Dipole_moment: 3.515
 S           0.22130430055054    0.85815951488357   -1.34016164386912
O           1.11248730960418    0.98950929176536   -0.18261588891449
O          -0.50679640554118    2.05493705324638   -1.65534277427237
O          -0.57428342030657   -0.35187326905664   -1.24729739775859
O           1.20741047642404    0.61402948423673   -2.58898399626081
H           1.18949679447593    1.45618331738019   -3.03250863854891
H          -1.34868868493693   -1.26305134434782    0.14147803230631
O           1.37903272408088   -2.10216246068164   -1.66376852809668
H           0.54852596444358   -1.58280630430451   -1.65696654554860
H           1.95543916333751   -1.63133749094732   -2.26964145669246
O          -0.77606550151418    2.53523843046329    0.97247683595715
H          -1.02079580881746    2.61842321422171    0.03758925887315
H           0.11954134018392    2.17379389910163    0.92292384100389
O          -1.31741009499057   -1.59598337608710    1.05500061457460
H           0.22085139157161   -1.57297834561914    1.12046674871934
H          -1.65162037174640   -0.85586806144276    1.60977616305638
O          -2.08035284141116    0.62814168582138    2.32642799812350
H          -3.00561549076792    0.87586450939691    2.34909615938911
H          -1.60973088927034    1.36953651811383    1.88121319220575
N           1.26139364816543   -1.37469521989490    0.90210817107162
H           1.87749178104915   -1.56066165230140    1.68494414926781
H           1.29113897088104   -0.36235426740795    0.58555267524196
H           1.50724564571558   -1.92004512804511    0.04823303047268
