    23
        -45.37540477  Gyration_radius:  2.35625238209 Dipole_moment: 3.507
 S          -0.06147537151987   -1.60498837080112    0.05886281866439
O          -1.27398745260836   -0.78174417978404    0.11898931421798
O           0.18091894022093   -2.37497085695452    1.24628025822918
O           1.06660305952268   -0.83225250923737   -0.42680133415877
O          -0.35743942190118   -2.68349930345542   -1.09933972410826
H          -0.52651052670638   -3.47755342110257   -0.60214348530771
H           1.59979031406425    0.90896171476122   -0.21987354808971
O           1.38666824611990    1.85631615214624   -0.16112648552209
H           1.17323355453620    2.01353106782737    0.78596540292171
H           0.05564366516503    1.70998105690870   -0.92134078418375
O          -0.70810261659558   -0.31101067441035    2.71626359300813
H          -1.29993515033472   -0.28922351829038    1.95165232183165
H          -0.20535882356484   -1.12725594429984    2.56897475292163
O           0.27133398037875   -0.57458932820510   -2.94761799025587
H           0.76051266829700   -0.72047303832294   -2.11163757614552
H          -0.19292896684436   -1.39969753364855   -3.10479884157042
O           0.67831073430369    1.95990314019432    2.41420369007960
H           1.34624189649733    1.98172178249917    3.10083320543035
H           0.14204939792554    1.15097222942747    2.58006735196673
N          -0.82638558223041    1.29475780385057   -1.38975299648463
H          -0.51331856026082    0.79540496014585   -2.24979419871173
H          -1.54697179082457    1.98435622213482   -1.56914187600338
H          -1.14889219443110    0.52135252847242   -0.73872387861306
