    23
        -45.38129226  Gyration_radius:  2.28581992087 Dipole_moment: 2.183
 S          -0.09111983522836    1.78574913740277    0.28484842192880
O           0.48371702291865    1.45470544614999   -1.01601524447543
O           0.86203029303264    1.59717494858895    1.35743110610756
O          -1.36011691000281    1.11162110420152    0.49420717407024
O          -0.42698432716260    3.33334133742385    0.25372750415400
H           0.41760070726743    3.74056683082539    0.41874223810546
H          -1.55330188064927   -0.23565375330564   -0.32565994233844
O           2.08103202086261   -0.49067677948598   -0.14301429942030
H           2.45509268445793   -0.12900678826666    0.66471964813654
H           1.55399241998047    0.24512964391763   -0.51208005219143
O           0.06114018666249   -0.41352910735900   -2.85746148120280
H           0.20499013825357    0.41654648829909   -2.35759699801979
H           0.91363114870569   -0.85629172725688   -2.86209029033878
O           0.26797069549338   -2.25430398376688    0.78705132028855
H           0.06454428600448   -1.75192430941443    1.60886614101204
H           1.05772603652174   -1.80219400343544    0.42071903866134
O          -0.33364916386313   -0.41185922291134    2.62942702747984
H           0.21444748322168    0.32618903273355    2.29572940121160
H          -1.23561031151715   -0.11736772206605    2.47854259469309
N          -1.46773401149922   -1.17350985297819   -0.80293663843287
H          -0.81408254428981   -1.76012784372082   -0.16722484926513
H          -0.98034306532080   -1.00770585744197   -1.71863878144430
H          -2.37497306380287   -1.60687298825943   -0.93129301870055
