    23
        -45.37905263  Gyration_radius:  2.28459187774 Dipole_moment: 5.247
 S          -1.32457323261794    0.42241612814154    1.34379232721927
O          -1.74418963035950    0.53126163644598   -0.06409905475819
O          -0.05814119269626    1.08127010778110    1.57223966480626
O          -1.38270388462174   -0.94876075643142    1.79833707225871
O          -2.41131231012126    1.21351813506279    2.18250802913998
H          -3.02612561225809    0.52618367907737    2.41768193983675
H          -0.22805743712934   -2.10187692435110    1.23764215861659
O           0.02768440990439    2.40816849223780   -0.72002621250676
H           0.27115598093944    2.31456052265641    0.21605022544095
H          -0.81765432109100    1.92703573672397   -0.74777750547813
O           2.09256292485465   -0.37161424100443    0.81553063247112
H           1.41894030492270    0.18894858983341    1.24273256870785
H           2.19245347500105   -0.02077222046222   -0.07951127921931
O           1.62613313805490    0.65726002757055   -1.82316234709033
H           2.17902637289427    1.05637337513194   -2.49552077160628
H           1.06509648575634    1.39326692934362   -1.44349926096930
O           0.47545308633076   -2.46981407665217    0.66188474266036
H           0.02629376917521   -1.86250167181757   -0.63389638993596
H           1.25575497369067   -1.89487250050314    0.83946787026601
N          -0.32747325460717   -1.19484108096694   -1.42575305957262
H          -1.00261611872506   -0.53192994978413   -0.94600266781959
H          -0.77729450827677   -1.69823531738564   -2.18190358886966
H           0.46958659098732   -0.62504463068887   -1.76671509359329
