    23
        -45.37905330  Gyration_radius:  2.2843678082 Dipole_moment: 5.315
 S          -1.77291122311275    0.74649318500999   -0.19428559376814
O          -0.97685241506559    1.43562189328962    0.79570566294275
O          -1.67698153527532   -0.71647900352549   -0.04470766482780
O          -1.51682821654833    1.14387338205115   -1.56035242694072
O          -3.28556171470264    1.11213411623535    0.10117368449210
H          -3.68560848664218    1.03989124582631   -0.75939810876084
H           0.08055214069939    1.06480829571056   -2.20714505688499
O           1.66001040740327    1.54790363372598    0.20783164152190
H           0.73080749736283    1.68940223170029    0.46675432469315
H           1.94422088882667    0.75595075897981    0.68345737432517
O          -0.54271915526790   -0.65778231217242    2.36311718527262
H          -0.62984162406368    0.30189988945551    2.23976182248063
H          -1.10277944504601   -0.99627966596678    1.64259373225496
O           1.83834476250392   -1.07282332471424    1.36487588943906
H           2.42244470994162   -1.48588603590721    2.00149081941505
H           0.96382653553853   -0.93457581094736    1.83028760778485
O           1.02289495244095    0.79759374279488   -2.25670871105483
H           0.88380041958862   -0.57228457341061   -1.66186784916414
H           1.44284995335366    1.25604274542537   -1.49230045381211
N           0.62885920643325   -1.43978793505271   -1.04516116419345
H           0.67751193713169   -2.30903114726869   -1.56435021865263
H          -0.35529928976383   -1.25093502015668   -0.69685542914549
H           1.24925971392113   -1.45575026100105   -0.21391707743673
