    23
        -45.37905190  Gyration_radius:  2.28436118268 Dipole_moment: 5.337
 S           0.60989814110441   -1.75495942555241   -0.53565568252966
O          -0.63895302713830   -1.26561522974515   -1.14728256209505
O           0.60645994520436   -1.57485929091672    0.89801576267922
O           1.76406802881155   -1.20796217996061   -1.21247623748861
O           0.63446986868321   -3.31681040807087   -0.79839424998089
H           1.04896858118517   -3.37486206918933   -1.65318788655960
H           2.18610498823876    0.45374324152327   -1.01765630037373
O           1.20124635788252    0.93966145155831    1.69411388833562
H           1.10399259648813   -0.01899108200816    1.54550333681859
H           0.30087998542540    1.28600376749731    1.75357730445101
O          -1.57067843976168    1.53823724929625    1.24838855240181
H          -1.79258897105871    0.56317868987898    1.27242991772592
H          -2.25225399094486    1.98420934489994    1.75204974036172
O           2.05746299207249    1.39547346303845   -0.77599834596067
H           0.60154792654729    1.50212318230758   -1.11906615572441
H           1.98403142760975    1.38329491958247    0.20652156468100
O          -1.98147811766606   -1.04188403647000    1.13887701024580
H          -1.83532184049525   -1.20618291175629    0.19023976098016
H          -1.15579515278809   -1.37979931012136    1.52231291877643
N          -0.47532197109361    1.34368129266519   -1.23522508364111
H          -0.59249695571937    0.29262140962823   -1.31807518833539
H          -0.84980756171381    1.82308290374771   -2.04605429449225
H          -0.95443482086676    1.63661502817843   -0.36295775025404
