    23
        -45.37371321  Gyration_radius:  2.4307412174 Dipole_moment: 4.640
 S          -0.69854748842221   -0.80091248515757   -0.04055977112351
O          -1.18217131708946   -0.61164481890878    1.32034283458566
O           0.72061829140149   -1.13940640820967   -0.06180346301701
O          -0.96113320590919    0.38995048089867   -0.86682918432696
O          -1.49027546873927   -1.97918150133753   -0.66024922396179
H          -1.38837712799425   -1.85925148229355   -1.65169507687234
H          -1.16588271906930    1.60898928694913    0.12517636356710
O          -0.96509618176576   -1.22591259462275   -3.05897991069309
H          -1.01888241798755   -0.34140028913369   -2.66896748508714
H          -0.00508306486726   -1.42461176014478   -3.10192031836395
O           1.45518399979067   -0.18787534864960    2.29702388674942
H           1.33746247406624   -0.57724089619240    1.40417173592727
H           0.69674804856323   -0.51312405778227    2.78992349137681
O           1.62376797666580   -1.66050263103876   -2.49912442046980
H           1.39285514505973   -1.42167451649859   -1.57514688103350
H           1.99581607035822   -2.54317709313992   -2.45777647242248
O           1.24711750313849    2.40224336351817    1.89395266812797
H           1.89155993735807    2.60553317932467    1.21356349755238
H           1.41291283855817    1.45359426499056    2.14452222085323
N          -1.23527315726116    1.94118373820006    1.13287778012362
H          -1.38951998246431    0.99205632947852    1.56782566441979
H          -1.98744028709267    2.59910771855034    1.30321624653823
H          -0.28635986632781    2.29325751127961    1.45045583757271
