    23
        -45.37905361  Gyration_radius:  2.28452943234 Dipole_moment: 5.288
 S           0.87877377397139   -1.62582746416392    0.56871527212692
O           0.25779909420393   -1.74524887458718   -0.73098304340885
O          -0.01934450137152   -0.97740352713886    1.54034678594765
O           2.17820168096383   -0.99228543927352    0.56242671909377
O           1.10463050946110   -3.09926307733133    1.10496761090885
H           1.87461716149436   -2.99994308561405    1.65542826641426
H           2.37853581797695    0.57847939428787   -0.12185172323010
O           0.31410543376061    0.52732866028001   -2.19441350700091
H          -0.54532933287703    0.88460147139106   -1.93411697614671
H           0.34409135894835   -0.37573754332168   -1.82810895667713
O           2.10596311826985    1.45386855205334   -0.47014520368250
H           1.62503289672374    1.24137364046456   -1.30348977480157
H           0.92811834285674    1.68022326050604    0.43005926796902
O          -2.03912658470603    1.29972295768697   -0.74149836233498
H          -2.89449628090768    1.65479835885325   -0.98521374587680
H          -2.19313375467390    0.34859568187836   -0.47281561056122
O          -2.21421734832214   -1.18681581431093    0.04870467889516
H          -1.60190642657095   -1.62083952505333   -0.56791297924734
H          -1.67992649032036   -1.15649692168301    0.86178793204012
N           0.01249327085409    1.58647282094493    1.02253958769614
H           0.00290079052898    0.58013139085422    1.35774587091656
H          -0.80667165879017    1.70809073727256    0.39759084465905
H          -0.01111088148657    2.23617437601077    1.80023703630878
