    23
        -45.36328826  Gyration_radius:  2.29643027377 Dipole_moment: 3.895
 S           0.49136725536634   -0.87686862296873    1.01845598610762
O           0.78904676106260   -1.07347531309660   -0.38268726891034
O          -0.40291480433027   -1.82153117231026    1.59997240926534
O          -0.08960222255516    0.55154360265885    1.19214414623177
O           1.80894851482285   -0.81767551112406    1.79235054373636
H           2.44883342220262   -0.28143409017994    1.20174641836572
H          -1.07824935775883    0.46109066845925    1.49274822277799
O           3.13964676099469    0.46524607462291    0.05931980159697
H           2.57558095327309    1.25865508411268   -0.14337323184184
H           2.99397049167293   -0.15189279939068   -0.66369865275499
O          -2.46710032975107    0.02075239625911    1.77717583207411
H          -2.26262130479775   -0.79372092113691    2.25149097113581
H          -2.65612201376425   -0.26751142456165    0.84124800925552
O           1.31370272713762    2.29675569196189   -0.49511271320200
H           0.81001323046827    1.92016844697527   -1.23985688859688
H           0.75819087925348    2.14370525779119    0.27771079174299
O          -0.03837100562936    0.63857576113200   -2.22484833277981
H           0.34753134046530    0.39880905230744   -3.06923659332822
H           0.25834090090969   -0.03787520143248   -1.57904469580835
N          -2.30098844172573   -0.90051709516821   -0.70322355927250
H          -2.97602586404346   -1.44468334152094   -1.22629691157048
H          -1.52568233359426   -1.50752655881950   -0.45779067559062
H          -1.93749555006867   -0.18058994467904   -1.31919360853622
