    23
        -45.36328824  Gyration_radius:  2.29645898018 Dipole_moment: 3.899
 S          -1.39361146423038    0.01076269194667   -0.32442673984339
O          -1.79744403655402   -0.39953963869632   -1.62788266548687
O          -0.60118240873982    1.21858587712196   -0.26347744288841
O          -0.58334527628855   -1.13183684838034    0.34336357156460
O          -2.60061444519180    0.17337714247525    0.60013794337781
H          -2.24669661623101    0.65593950633343    1.42951404130641
H          -0.34530091564954   -1.82650642617490   -0.38946715602606
O          -0.05172238825451   -2.55325096401441   -1.64974313551340
H          -0.87206947845266   -2.36010334580299   -2.11866359514166
H           0.60117237812202   -1.87812015742205   -1.98542617805547
O           1.94557959540707    1.16856710668978    0.45905955265145
H           1.01501891925189    1.22748510253664    0.15373099997708
H           2.26339017644619    2.06925152018215    0.54377117722484
O           0.73770303345591   -0.09131055182940    2.58652919415769
H           0.37962249985697   -0.83928025356316    2.09489992891925
H           1.37091452456178    0.32625807831359    1.97436552059290
O          -1.41790306094708    1.43548165484002    2.45161104515256
H          -0.62612183004585    0.87231792081520    2.66276512602374
H          -1.09107402761456    2.15136343184710    1.89885650241239
N           1.27124770721920   -0.32504266162118   -2.20898810361660
H           0.42532599019376    0.23106316709617   -2.13835979461750
H           1.74970110039449   -0.06703603386298   -3.06332269727887
H           1.86741003324727   -0.06842630882790   -1.42884708487665
