    23
        -45.36078923  Gyration_radius:  2.50928287752 Dipole_moment: 4.633
 S          -2.27999020236902   -1.37572034809909    0.38737816871738
O          -1.99208945004601   -1.51962986700546   -1.02040746588296
O          -2.57690031992461   -0.01038361581487    0.78510811947632
O          -1.22632164673156   -1.94984679190176    1.23554505744176
O          -3.57839692191980   -2.22718157788138    0.67866095323997
H          -3.76254800615339   -2.00215922889284    1.58513536936942
H          -0.07844944742010   -1.14686228789210    1.46694593880082
O          -0.47789641229976    1.43960127100330    0.30011415479861
H          -0.31415843452427    1.12600406349334   -0.60884785455012
H          -1.37596324914597    1.08634751880518    0.51734513848456
O           0.71193935278290   -0.44416665496489    1.51534272505581
H           0.27663475568280    0.42359325929804    1.16223812243914
H           1.39348740035624   -0.68164920949277    0.74525391095611
O          -0.06782165841954   -0.07898282322485   -1.94068409152581
H          -0.79645164012977   -0.67695736482334   -1.61891052748208
H          -0.20874715762020    0.00981736505013   -2.88442824899312
O           2.17559425699578   -0.65448302253392   -0.50638612172214
H           2.50539649085908    0.27700469563314   -0.44796275828654
H           1.46758171220455   -0.62696255555377   -1.17654348709404
N           2.56359105920474    1.99265876878356   -0.11033510007331
H           3.14945018158921    2.19555738698524    0.68993960909583
H           1.61610023976666    2.27106239108039    0.12376862391914
H           2.87595909727326    2.57333862794165   -0.87827020613342
