    23
        -45.36655706  Gyration_radius:  2.28295773401 Dipole_moment: 1.989
 S          -0.54696502513272    1.60394322661460   -0.32748671918915
O           0.66311335415906    1.30546048726854    0.43212486937799
O          -1.59770321278199    0.64500240899278   -0.08398353191972
O          -0.23053351540585    1.78208627314347   -1.74333527841166
O          -1.07457790791577    3.00480050617676    0.16791007434511
H          -0.51271292387607    3.60720366889236   -0.30815602337830
H           0.48443043451783    0.61928070154387   -2.33438202817288
O           0.96950964301075   -0.28284580866397   -2.48017191279345
H           0.31363536986335   -0.97307999888086   -1.94904386976353
H           1.80476882143286   -0.21086223769886   -1.88778020410144
O          -0.53475760622163   -1.59731093025779   -1.02146072950823
H          -1.15985160551096   -0.88237833964629   -0.77787962416738
H           0.01461659565615   -1.70642955905263   -0.19428262682060
O           0.78112870127130   -1.28454296609175    1.21089590622753
H           0.77959646470929   -0.31605810073539    1.09257974542420
H           0.01689177076429   -1.43643169367173    1.80724657811216
O           2.72101418954220    0.03856330392560   -0.66059267553274
H           2.75704536473945   -0.72826316485851   -0.07883451085213
H           2.12661831404599    0.67532054818342   -0.20750839068552
N          -1.68679013502195   -1.07191233424160    2.32298653033276
H          -1.85640955691233   -0.39596438257152    1.57947420546036
H          -1.84346131003877   -0.59855057108457    3.20423284432138
H          -2.38860620489200   -1.79703102729108    2.23744737168902
