    23
        -45.36860144  Gyration_radius:  2.27466123677 Dipole_moment: 3.529
 S           1.38717228121384   -1.20400856742834   -0.55531504709464
O           1.10440074878469   -0.04898246064446   -1.38200283851384
O           0.18621951594108   -1.80584754282853   -0.00490227225218
O           2.37666825646862   -0.92872686429649    0.48588471648581
O           2.05614591026999   -2.27898722780005   -1.50322566143567
H           2.43908047173636   -2.88881713685881   -0.88059706439179
H           1.93988663943958    0.10405633392149    1.45007565681546
O          -0.78496809119818   -0.37548842022170    1.97549707937214
H          -0.51224948484980   -1.03932347587663    1.29814574222633
H          -1.36152614647323    0.25570454322624    1.50261453707962
O          -1.97532997733842    1.39710236087761    0.28161286244590
H          -2.82117224007553    1.84480737359922    0.25066996663901
H          -1.94895668112084    0.75393191483328   -0.49609166851779
O           0.63042726018518    2.16369943029414    0.00894304492013
H           0.88171985470007    1.48171809561501   -0.65114813614999
H          -0.34091766848079    2.09758244591078    0.08793657932519
O           1.40777244951161    0.82088192067454    1.97868545671415
H           1.16325914456803    1.52892423303578    1.24050449864751
H           0.48310298117051    0.33561161906283    2.15910622185241
N          -1.69386971574992   -0.35229198078097   -1.65405693364809
H          -2.12207908564717   -0.35443796992739   -2.57144463229816
H          -1.80787062890039   -1.27402760151313   -1.24781797535314
H          -0.68691582414051   -0.23308102286786   -1.77307414286552
