    23
        -45.36860085  Gyration_radius:  2.27452165003 Dipole_moment: 3.559
 S           1.27366220981678    1.09965457945910   -0.92169328531399
O           0.93616909861140   -0.18860333974399   -1.49072785826020
O           1.37380201621298    1.06442056322060    0.52624833008315
O           0.38530580306669    2.17001977767859   -1.37327844900715
O           2.70653413498534    1.47192543437488   -1.47853598211874
H           2.77320439960811    2.39771611817617   -1.26705328218032
H          -1.02564911373010    1.96507477742880   -0.98332826240235
O          -1.24224235706221   -1.71224832834406    1.20594647717399
H          -1.56089069437561   -2.45736385060355    1.71605264465111
H          -0.24775474545153   -1.83628079190062    1.08463621798412
O          -1.91396969394633    1.60299279165107   -0.58731832888997
H          -1.96987699526266    0.62868091927630   -0.97972680004644
H          -1.66284909370674    1.43701081922826    0.42822753993944
O          -1.64859541392382   -0.77805698296823   -1.32675895196559
H          -0.70130812486145   -0.67823287327832   -1.56487521261517
H          -1.64930971067005   -1.25727637716916   -0.47562345937357
O          -1.00154178816648    0.96611958403077    1.64948281674871
H          -1.17180924809268    0.00439831663443    1.67295162410459
H          -0.05694021829876    1.05824989673297    1.37941817733237
N           1.34587332922290   -1.81643440653729    0.78463259389968
H           1.33223708763981   -1.37102862803695   -0.13391421877227
H           1.94603668074993   -2.63008418086711    0.73209802294478
H           1.77991243762930   -1.14065381844288    1.40313962608418
