    23
        -45.36961900  Gyration_radius:  2.3679037686 Dipole_moment: 6.101
 S           0.08744498272371    0.18446833128101    1.13250980764519
O           0.80026327802294    1.15700721414730    0.30946777301650
O           0.91001530052387   -0.91169100349708    1.58268310232190
O          -1.04968720446401   -0.39651103710123    0.19840388385976
O          -0.65868710837125    0.85368293691290    2.20427400683969
H          -1.70323468208860    1.51259298621558    1.53910128608787
H          -0.78359581667265   -1.34482956312402   -0.02543242329417
O           1.77589576703436   -1.96662185157420   -1.98713775661804
H           2.42611480529268   -2.58884243101746   -2.31650863998703
H           2.26461534529103   -1.35459321830232   -1.38241585589629
O          -0.05391018873031   -2.70891662537067   -0.17786722084135
H           0.55450751059778   -2.54549639722996   -0.93499629884910
H           0.45900236776531   -2.50145310815581    0.61847195425475
O           2.91751034493054   -0.42386982823269   -0.14740002710356
H           2.42673438559319    0.41032052509882   -0.21337372161972
H           2.52500315043914   -0.82359919386430    0.64475487848955
O          -1.01165499093118    2.06121752656975   -1.28945152098448
H          -0.21299432716046    1.81838709394306   -0.74867509427254
H          -1.15578006403797    1.30445893097865   -1.86341737698741
N          -2.48270837648702    1.97673777144469    0.87895295777392
H          -3.26704593135290    1.33626689403485    0.80689737207934
H          -1.99093915385972    2.07277890885260   -0.06905627074617
H          -2.77686939408600    2.87850512796382    1.24021517479964
