    23
        -45.37226450  Gyration_radius:  2.25422890551 Dipole_moment: 6.171
 S          -0.94109742855936    1.20994704524884    0.35123394409714
O          -0.79963505269846    2.48611339663585    0.98907445214857
O          -0.35139200753674    0.11776724352447    1.15162092202487
O          -0.10871129851872    1.22465230192723   -0.99768350254707
O          -2.27853994250164    0.82963731406361   -0.08285023720778
H          -1.87828503260935   -0.31306261625265   -0.95734451329282
H           0.61745941653556    1.88999640635182   -0.86920876916344
O           1.64173926659877    2.88808790847402   -0.06453573744593
H           2.13954376692928    2.16928788497945    0.35731076361438
H           0.88825081955269    3.08567406433074    0.51852864148249
O          -1.09011733948698   -2.38678600690279    0.96302022760509
H          -1.70059286746653   -2.58993762274819    1.67276683289396
H          -0.79559129282102   -1.45489152522272    1.12353391906714
O           1.19765580615089   -1.45513582451272   -1.05872679251328
H           1.66974185509294   -0.70371908866909   -0.66991552627781
H           1.03248776464316   -2.06311053345803   -0.33123840002654
O           2.21188916966814    0.36018461219840    0.91498805244853
H           1.23995299331536    0.28270108684943    1.08909650485593
H           2.65314146758702    0.11434720224165    1.72955182315555
N          -1.46088289676478   -1.21302466385278   -1.39458214540582
H          -1.89962485961223   -1.45760286858221   -2.27564410618342
H          -1.56281454911423   -1.94745488434939   -0.66373662348114
H          -0.42457775838831   -1.07367080225007   -1.49525973985191
