    23
        -45.37543830  Gyration_radius:  2.26411815361 Dipole_moment: 5.716
 S          -0.36187155530149   -0.69661657396965    1.24170010471115
O          -1.58061192874375   -0.77711874738556    2.00045190269151
O          -0.12285940079201    0.66223313487320    0.72099932719517
O          -0.50169391167873   -1.61494088846509   -0.03898584193495
O           0.83097225402257   -1.22484981872133    1.88298941440030
H           1.81043285921805   -1.06770919279337    0.76933958249690
H          -1.20860953972410   -1.24510960586312   -0.62428863416531
O           0.64130512133793    0.31891978938546   -1.78456755825119
H          -0.11249011395751   -0.03053176950263   -2.26716689396597
H           0.27411468568796    0.59594989903546   -0.91651396452017
O           2.28483372754979    1.80188120024245    0.74518775474272
H           1.36854465468207    1.49311121315860    0.92089921359185
H           2.20533575535079    2.49335389424809    0.08486609983194
O          -2.29354267454505   -0.44721609538013   -1.55281000506643
H          -3.05006762933399   -1.00094712772104   -1.75497855019343
H          -2.59941674798151    0.17915806560490   -0.83940806579702
O          -2.90280484336091    0.97704010896742    0.55569044075196
H          -2.25503822739118    1.68551660948989    0.60632815703938
H          -2.57855984405684    0.31330021425029    1.20612326414911
N           2.42460237016392   -0.72318675180598   -0.05744894325553
H           1.80735524930013   -0.60707706442101   -0.89232218938823
H           3.21550112742081   -1.33301275694239   -0.23283324296442
H           2.70456861215408    0.24785227367953    0.22674859793607
