    23
        -45.37141371  Gyration_radius:  2.31804532086 Dipole_moment: 3.528
 S          -0.86759472574729   -0.42071279700381   -0.65698952372346
O          -0.60928832782959   -1.77756121683007   -1.09842947009074
O           0.01761594789725    0.56578081843038   -1.24912119074495
O          -0.84859025771346   -0.32672389905343    0.81145617019391
O          -2.31655277484807   -0.02093306598872   -1.09937668478202
H          -2.85655929012051   -0.72087572858274   -0.67905231086404
H           0.20218452701186    0.49327626696279    1.46432601167643
O           1.80586306697145   -2.35051923242130   -0.16312262127825
H           2.20333187772833   -2.97582325971302   -0.77214410840577
H           0.88996680603388   -2.20529437718677   -0.48454805312886
O           0.97586402698784    1.14595363541218    1.67636467851068
H           1.73229678940878    0.78052517055305    1.04770036184745
H           0.64426249607822    2.02673006589146    1.17174364475119
O           2.43209634830942    0.23483852318818   -0.14721162514655
H           1.70896238596214    0.41927803256628   -0.77983625195462
H           2.42113934523788   -0.74453230386399   -0.05925891537358
O          -2.85756172802449   -2.15946905857586    0.34060868055373
H          -2.14452115744413   -2.52328023919394   -0.20549520953618
H          -2.40588059962652   -1.74398234713052    1.08497082731964
N           0.07582241006796    2.96877261024776    0.16659363426043
H           0.68930690439359    3.68239671161359   -0.20499197916077
H          -0.81391052172231    3.39255868404519    0.39425616084328
H          -0.07825352902123    2.25959700663560   -0.55844220576942
