    23
        -45.38002663  Gyration_radius:  2.2966922985 Dipole_moment: 2.947
 S          -0.09537587676201   -1.07223549291171    1.60266138844620
O           0.19650038075886    0.35449701738490    1.63914443258125
O           1.07208486914269   -1.86931706793748    1.27181256595213
O          -1.23657831288532   -1.38410638063809    0.76627066993058
O          -0.51188443446837   -1.45442473411676    3.08378503950263
H          -0.83198183080605   -2.34014990179417    2.95326314962045
H          -1.11455192220195   -1.23339665081554   -0.88358436270698
O          -1.77987382246670    1.91424645397483    0.93098825198131
H          -1.14035536913814    1.24409630832615    1.27340661832523
H          -1.67281155667900    2.68407462194638    1.49251964533442
O           1.83344541573158   -1.37084229598315   -1.13847546492943
H           2.52386110392092   -1.99271309826145   -1.37353623621838
H           1.56519613135086   -1.60254966011759   -0.20722212613390
O           1.71867674015981    1.25577462292337   -0.36504147575947
H           1.99932597699970    0.40606224051602   -0.74692205127333
H           1.31691525024536    1.01151283748813    0.49474904293689
O          -0.81514572125861   -1.00895834246215   -1.79597461524087
H           0.12628870969096   -1.25296193816187   -1.80271370948788
H          -0.82236232187090    0.53933517966196   -1.71265750611363
N          -0.64375096072199    1.57134749204097   -1.46621228821350
H          -1.23736970998352    1.80932495047822   -0.63634117234983
H          -0.81818423139074    2.18924695001146   -2.24974990384439
H           0.36793148338066    1.60213687813218   -1.13016988255489
