    23
        -45.36388706  Gyration_radius:  2.32061076368 Dipole_moment: 3.228
 S          -0.52791115118478   -0.91615518098823   -1.09191493489264
O          -1.52838172387379   -1.92470323564742   -0.97791755017780
O           0.00157571502037   -0.67306430804092   -2.40074541526364
O           0.67155567892500   -1.20150454851711   -0.16483214031649
O          -1.12940906695587    0.40041276897931   -0.52024246325682
H          -0.44897133342047    0.96580232573862   -0.04261140835499
H           0.38477263979203   -1.08947531950292    0.83912798146644
O           2.73943747079086    0.72443530268796   -0.13194319234381
H           2.52845117531494    1.02705823877921   -1.04135361146141
H           2.49331395464955   -0.20758433204857   -0.10717019893759
O          -0.09821279335242   -0.70348648880876    2.15241343013558
H          -1.08718025252643   -0.88133500396704    2.05431468120248
H           0.02307560810339    0.25399787720523    2.15742081871056
O           1.62863916902582    1.39706485099926   -2.46860888090560
H           2.03928650221410    1.42776175276721   -3.33427375407589
H           0.98957522324411    0.65057655958907   -2.50057434781825
O           0.57349181767240    1.76487442302985    0.84560222455498
H           0.56765532161892    2.68242119028367    0.56580521458461
H           1.47027338773996    1.40146398143638    0.57234348121587
N          -2.59630234261208   -1.20839263516238    1.54026289747560
H          -2.37309845703078   -1.57176391115763    0.61197880266842
H          -3.19505342183512   -0.40267561104198    1.40949335013479
H          -3.12658312148424   -1.91572870694222    2.03342502537931
