    23
        -45.37026577  Gyration_radius:  2.27646968096 Dipole_moment: 5.656
 S           0.50751573867512    1.23966918009411   -0.02138009896823
O           1.41063136196331    1.79807657558621    0.98010670729323
O          -0.78836211084925    0.89818753535213    0.57257010240485
O           1.10340261988047    0.04561204647107   -0.63792924712446
O           0.28945461402387    2.30386896092159   -1.10634079620316
H          -0.20683606584486    1.87889522526134   -1.88134876585999
H           2.04136836640823   -0.65162926617606    0.55335831839183
O          -1.11208376335732    1.21816452637871   -2.95297186334681
H          -1.62229081817393    0.54851672591810   -2.41241339882979
H          -1.75806099512526    1.85287390113425   -3.27047249992864
O          -0.44290618174208   -2.17249395959532   -0.53260280974007
H          -0.55178262018328   -2.16820574528331    0.42413171409055
H           0.15672581799914   -1.42933919940873   -0.73032378037647
O          -2.32959119410066   -0.33133510548767   -1.24840273431220
H          -1.95913812253453    0.18024473083640   -0.50399348061605
H          -1.86246390328117   -1.18644428121323   -1.19858208616728
O          -0.30269546112152   -1.05381918178797    2.21615776180998
H          -0.55362882064099   -0.30395312776932    1.61116807811605
H          -0.86605275814455   -0.96551805198271    2.98677917373390
N           2.22708755149414   -0.50862522776169    1.58065013449581
H           1.40873719787438   -0.91649094315931    2.08227134984223
H           2.08324652287056    0.56372057855564    1.58131709075694
H           3.12772302342686   -0.83997590694265    1.90825114007365
