    23
        -45.37185465  Gyration_radius:  2.26807033384 Dipole_moment: 3.175
 S          -0.08150912372740    1.32203737665091    1.18920390514697
O           1.05805502389121    1.96126447476979    0.56285139917271
O           0.22700744430051    0.02887814465553    1.77441588861054
O          -1.23398850539087    1.23440156002834    0.29829587083683
O          -0.49792836471442    2.27903412819935    2.38171623351801
H           0.04140868272804    3.04682352351735    2.22218328746381
H          -1.58062374901185   -0.08023848660501   -0.39179582372518
O           0.47419580759244   -0.69160828099729   -2.19695648870925
H           1.15353030405856   -0.81856729320490   -1.49425147839816
H           0.45234895364624    0.28603988600038   -2.34061835068429
O           2.05008499449551   -0.62210278034699   -0.04658343503350
H           1.44222713515400   -0.45123832345300    0.69914382364218
H           2.53558675787465    0.20120568571104   -0.14928985287669
O          -1.60816681500568   -0.98110712955375   -0.86753825221942
H          -0.76653052668436   -0.92829511928529   -1.52857306744419
H          -1.32845842280619   -1.69082533372280   -0.11041401156167
O           0.26139604918972    1.94182631663974   -1.97879549960530
H           0.66939553492572    2.03576973915963   -1.09439259970747
H          -0.67532379460943    2.09568799248893   -1.82829677537147
N          -0.77584467392106   -2.45891763932196    1.00986948069049
H          -1.41318245486676   -2.98217846729903    1.59505018680502
H          -0.40162859485734   -1.67077466877451    1.54538491339986
H          -0.00205167225453   -3.05711531526265    0.74939065601863
