    23
        -45.35358683  Gyration_radius:  2.42526464277 Dipole_moment: 3.587
 S          -1.31613536867326   -1.84486898679742   -0.43373810549028
O          -2.48714061252956   -1.10867477684615   -0.75558314758948
O          -0.56105886917129   -1.40696834159530    0.70710749724015
O          -0.38120757229033   -1.97002053807405   -1.64675882054589
O          -1.70832818590660   -3.34223587817133   -0.20760599769697
H          -0.93970933699282   -3.77845650331451    0.15432997491927
H          -0.00436590042900   -1.03711340449680   -1.87017146084098
O          -1.52537799578277    1.46033184460894   -0.87436569763841
H          -1.28813551843325    1.55987172776183    0.08937280177278
H          -2.16211034561329    0.73119430528745   -0.89112564387520
O          -0.82485454099322    1.26354222302665    1.63508086341779
H          -0.78089633557140    0.30031606551221    1.58755563778986
H           0.10595846949094    1.56368456080423    1.77682901175008
O           0.42420748555021    0.37365591173611   -2.06831404898175
H          -0.31765991971665    0.90183434101767   -1.58827862958353
H           0.37899583749777    0.62872902310528   -2.99242975913176
O           2.01770256350588   -0.51452514200958    0.14527632378594
H           1.78674247393891   -0.10915258485813   -0.69786207727634
H           1.19278939782547   -0.89219205483329    0.48201450910110
N           1.82585256866997    1.81735828809927    1.87472224455469
H           2.22582119404318    1.74416592512278    2.80115203793004
H           2.20153436327858    2.64955551010978    1.43881431217654
H           2.13737613831152    1.00996849479300    1.33397816420741
