    23
        -45.36666066  Gyration_radius:  2.38665781785 Dipole_moment: 3.656
 S           1.01444359087124   -0.20518323718027   -0.04998983595151
O           0.95081560440336   -0.13313528950609   -1.47922171561528
O           0.72681492683508   -1.52443040084582    0.48103170748244
O           0.05180396922949    0.79555955976275    0.58509946896749
O           2.38614676704784    0.26741129343428    0.43362777641191
H           2.27625612137991    0.52792258398825    1.41152487778771
H          -0.95260332947527    0.74735726125552    0.08218129214856
O          -1.32002551185853   -1.88512181069317   -1.20409494505455
H          -0.62389953918021   -1.96613360953873   -0.52671541104915
H          -0.84290311945122   -1.79006403153910   -2.03273468828930
O          -2.06420384047708    0.58963582860763   -0.63031056797327
H          -1.80864403047872    1.04768994369242   -1.48881729878073
H          -2.02114287514596   -0.37796711664920   -0.83339356207497
O           1.75205940801983    0.90260921751690    2.81451587030473
H           1.42530778009718    0.03460476300383    3.14363717926758
H           0.96856843271537    1.40221665511608    2.56165956308318
O           0.63529249179586   -1.49027894629029    3.13551995231250
H          -0.26809730876438   -1.69601863595309    3.38192066451098
H           0.70216076764740   -1.65105633014349    2.17195868118778
N          -0.94936084590268    1.55577072859935   -2.81289633139343
H          -0.11124786089140    1.03272113441786   -2.55759763212004
H          -0.70545475640789    2.53743243497510   -2.83959800004228
H          -1.22208682195755    1.27845799398109   -3.74730702501088
