    23
        -45.36388379  Gyration_radius:  2.31815661988 Dipole_moment: 2.617
 S           0.76889608579827    1.11574820833335   -0.94273934847612
O           1.34775845682410   -0.12517599704181   -0.45420916483506
O           1.44871290581932    2.31843697168253   -0.57634613665925
O          -0.67639930096846    1.15363664397966   -0.70434517202277
O           0.90868045465643    0.99134102412985   -2.54571517187197
H           1.08590495254151    1.88585050630392   -2.81971709923769
H          -1.37128954868241   -0.08254623986446   -0.81333021746540
O          -1.44050152880040   -2.00345204918979    1.39824659637851
H          -0.65141582465077   -1.47231729498149    1.75518336653515
H          -1.16414873974298   -2.92198770904570    1.40129259493632
O          -1.72939462554501   -1.07306456225904   -0.91182397561535
H          -1.67811973940970   -1.48151639587823    0.06202142744160
H          -0.99124707001247   -1.52203862513189   -1.46070909454799
O           0.37085502621809   -1.84532965127272   -2.12376322803167
H           0.90126701644266   -1.29925829379240   -1.49194940045287
H           0.48719806661171   -1.42146671323740   -2.97763678595089
O           0.64414535833429   -0.68510963208872    2.08958890360481
H           0.41625244202382    0.25064088515612    2.30231500586682
H           1.08961961816336   -0.61132953450424    1.22801638204153
N           0.10933265548350    1.95355001552743    2.00489587935046
H           0.22539568199077    2.67032680412925    2.71153515115609
H          -0.83212729377249    2.02960405854777    1.63789166518065
H           0.73062495064728    2.17545758047702    1.23129784265361
