    23
        -45.36596478  Gyration_radius:  2.40348552498 Dipole_moment: 1.824
 S           0.80803633434568    0.83161751102591    1.07131189599076
O           0.81227735451231    1.10135145839313   -0.34608352131396
O           1.73433197653088   -0.18420999382898    1.48599567737347
O          -0.62002200521660    0.46688178244739    1.50569021788921
O           1.06508300631936    2.12741387068106    1.84313453552799
H           0.39496301162939    2.78334946714534    1.41492987778641
H          -0.91319687091854   -0.48995286875412    1.18538109113201
O           0.83265301574017   -0.97035060405358   -2.09471438752357
H           0.90902728740265   -0.13244293074441   -1.60468543712072
H           1.18063385084114   -1.64428456349405   -1.49481893613416
O          -1.78549573192117   -1.33498712047593   -1.90172384742264
H          -2.04089193008927   -2.05893115971850   -2.47548462729867
H          -0.83721596154851   -1.13879952604622   -2.10682146473944
O           1.41014406679270   -2.47281084487992    0.22892250735936
H           1.92558527191403   -3.17135816645066    0.63621152039297
H           1.64344760852275   -1.64399800001523    0.70531920364713
O          -1.21178318268257   -1.80817732505078    0.64343716509454
H          -1.56812315983597   -1.63271057866172   -0.26284129658864
H          -0.33782142970786   -2.22139351929592    0.50740862279905
N          -0.68294549318126    3.37010924523188    0.45833517799271
H          -0.68525087198799    4.33728568817238    0.16211956218889
H          -1.61307335199257    3.11215650088389    0.76074739770490
H          -0.42036278545029    2.77424168750103   -0.32177093474769
