    23
        -45.37026575  Gyration_radius:  2.27622088303 Dipole_moment: 5.655
 S          -1.13380771156923   -0.56168241068981   -0.44122011998048
O          -1.01633186012119    0.84912294613832   -0.06123415054397
O          -2.11409061483861   -1.24815221285264    0.39445963060481
O           0.17740462029519   -1.21765171973556   -0.33439433639572
O          -1.61395492594136   -0.64357834553003   -1.89722740552814
H          -0.87097103767207   -0.31017993062924   -2.50105385439587
H           0.24492214654779   -1.83250174334717    1.21551245987016
O           0.23292960303292    0.36755501757816   -3.35276585749893
H          -0.16875717393355    0.89344841115729   -4.04779454607683
H           0.62873448961550    1.01860719865422   -2.70432828573219
O           0.00901577723587    0.83851662988670    2.32559941960596
H          -0.39294727030992    0.91111330892691    1.41758917856349
H          -0.37496211278864    1.55244323709506    2.83727498209399
O           2.20867620760843    0.42382034973895    0.37280457683082
H           1.59371185886121   -0.24140616343784    0.01184219191011
H           1.79810290687177    0.74116125814079    1.18391267474295
O           0.95528579323942    2.01034716285041   -1.46387381152445
H           1.68003661658666    1.60945457995231   -0.94816076558650
H           0.15447262151751    1.78834066824825   -0.95155957650210
N          -0.33582163912518   -1.79377810940209    2.09388808785224
H          -1.29498654627896   -1.70804091175490    1.60081072764439
H          -0.14302266913412   -0.86519579026917    2.52769772997479
H          -0.22363909971443   -2.58176344071269    2.72222102003937
