    23
        -45.36388385  Gyration_radius:  2.31831993518 Dipole_moment: 2.613
 S          -0.84228157703859    1.05114753830244    0.95429089711755
O          -1.63904900149042    2.18246470818542    0.59635945410459
O           0.57530901528534    1.13833068302282    0.64347635416781
O          -1.40042118545590   -0.23117388123209    0.51701450610502
O          -0.87097725010760    0.97373982094605    2.56596825943646
H          -1.65360348077376    1.46567685771344    2.79430143851487
H          -0.54818922841527   -1.36481770438334    0.62153123627952
O           1.12816372758359    0.52036177653391   -1.92396725042969
H           0.21013487481705    0.70271191169337   -2.23500068474642
H           1.12619172321178    0.87286270215577   -1.01735843653050
O           0.20970993948518   -2.09283825481348    0.74344645407012
H           0.72192863155681   -2.11294016248879   -0.18117377402120
H           0.83654594223626   -1.64883557586007    1.41992197779520
O           1.57316157660535   -0.59629604634961    2.28533876289819
H           1.35277151214092    0.16545592315715    1.69378066178283
H           1.12607850723929   -0.40588300401049    3.11370878728031
O           1.45344374655048   -1.97209894252539   -1.43009894081828
H           2.40077505753676   -2.08208290599316   -1.32739483065584
H           1.31244452867070   -1.00680416883977   -1.71350495204183
N          -1.50286680063431    1.06701147855076   -2.11107957886885
H          -1.56309301430559    1.64431573595098   -1.27631595992779
H          -1.97986760171132    0.20135153235574   -1.88742067318706
H          -2.02630965301691    1.52833999792530   -2.84582372830284
