    23
        -45.36690638  Gyration_radius:  2.37942458696 Dipole_moment: 1.657
 S          -0.48013457723258    0.84812052389039   -0.89220599046950
O          -1.64631516303434    1.59734766149272   -0.53120064328067
O          -0.71020020062163   -0.57614750254000   -1.00038706659025
O           0.64994232295339    1.08535126855597    0.12795530755365
O           0.11749168221536    1.39227732239408   -2.17965086569652
H           1.10937095219366    1.10668886230069   -2.18825483016872
H           0.35261599867694    0.78396826960032    1.09802968435330
O          -0.18201117213962    0.31137587507794    2.34361319045245
H          -1.03732595731529    0.79231405864200    2.41965399375754
H          -0.43924575268269   -0.61609794780718    2.13196623959918
O          -1.18404652864534   -1.90214446762540    1.26373147255610
H          -2.13271944288332   -1.92087101302019    1.40603501694897
H          -1.05206858522622   -1.52515061144459    0.37039503708918
O          -2.54268417156514    1.48004628196546    1.96897937975354
H          -2.35195799724829    1.53310368087679    1.00958643281488
H          -2.79478227609207    2.36482961684880    2.23887153272044
O           2.51084247491597    0.64338469850422   -1.94311862315439
H           2.37927038478074   -0.33392498697087   -1.74427110925669
H           2.70741172043451    1.05907755794239   -1.09849668019553
N           1.83645413554930   -1.81682811350162   -1.27457087533871
H           2.11563442536161   -2.17192296502853   -0.36855828724122
H           1.92434793816852   -2.57113948638653   -1.94347798853050
H           0.85010977942816   -1.56365856375700   -1.21462431764420
