    23
        -45.35823180  Gyration_radius:  2.40406657244 Dipole_moment: 4.226
 S           0.35785387618042    0.04675952911027   -1.19815197908033
O           0.75924159088399   -1.33445516355961   -1.14431909238058
O           1.14981901693634    0.87300103410378   -2.06082396721196
O           0.39555870748403    0.62103783623717    0.24580348946053
O          -1.11744724278523    0.12612348120746   -1.56620859260761
H          -1.64851925388958    0.81665821166716   -0.98754784042169
H           1.24654733650373    0.23922478338074    0.64804112455705
O           3.65540572742305    0.86465986514507   -1.14565622037327
H           3.93258509145296    1.78133410003577   -1.09200138745118
H           2.80631767519453    0.86549027147554   -1.63297766285155
O          -2.50999231622748    1.59828853187844   -0.10626544763179
H          -3.41736418320944    1.41668798553350   -0.36272060783384
H          -2.34031259543305    1.08438518271628    0.75817822149778
O           2.57330362677423   -0.53593440960978    0.83888798679437
H           3.16745551760524   -0.04578244513681    0.22489647836234
H           2.32320209150501   -1.33721375567528    0.36300289734064
O          -1.33217613689371   -2.20375796928270    0.29888796076378
H          -1.96028638129488   -2.49484809886629   -0.36455896910788
H          -0.52040933451507   -1.98409994055134   -0.19291840973726
N          -2.00012322836894    0.08340781277485    1.95376248930961
H          -1.81002860656890   -0.79961881728397    1.47632417974998
H          -2.59924612421890   -0.10558613472365    2.74751585487171
H          -1.11138486451875    0.42423808937524    2.29884950399390
