    23
        -45.36705563  Gyration_radius:  2.32135473193 Dipole_moment: 4.973
 S          -0.25078390257569   -1.12713121361908    1.36058397205936
O           0.71537413371134   -0.03878719292931    1.31151212385061
O           0.22781956300262   -2.34238177390055    1.91566416719592
O          -0.74967990816638   -1.39070049217938   -0.07464919633155
O          -1.49409047130884   -0.63690121008469    2.10757600806390
H          -1.87332736721344    0.19554795115023    1.59041284095850
H          -0.66018839306590   -0.58388718606954   -0.71468125230673
O           0.41122089432380    2.32274610259798    0.22995511684435
H           0.58798124407505    1.49639399249142    0.73620741058236
H           1.24494783520424    2.79416955125814    0.18649462503923
O          -0.42835291276549    0.54559720965150   -1.66148408334620
H           0.36940537030456    0.15617681869513   -2.09387631756430
H          -0.10305827445279    1.29608753293143   -1.12716457686774
O           2.29933227196159   -1.79389087881389    0.02113955662532
H           1.87805497814078   -2.55764482059520    0.42738023745175
H           2.00255873311019   -1.04586254325118    0.56091354963797
O           1.73149175270382   -0.78653720402580   -2.43243666384062
H           2.02752462567492   -1.15877935375613   -1.57472447310095
H           1.56370682070845   -1.53867549290406   -3.00241244777316
N          -2.31366943080261    1.34878638843039    0.71800434087775
H          -2.49738866469169    1.01202782077245   -0.21956807347420
H          -1.54993318672839    2.01642579797759    0.66714992477249
H          -3.13894572111621    1.81722017617930    1.06800321064138
