    23
        -45.37350742  Gyration_radius:  2.30968076744 Dipole_moment: 7.150
 S          -0.19268731066997   -0.04687205808433    1.09947293296856
O           0.91119426688877    0.90887598286163    1.00434045287333
O           0.23877107209048   -1.36447162428538    1.48817429851245
O          -0.82344127989130   -0.12086147031609   -0.33914686230010
O          -1.29421209745507    0.48942508412639    1.90301282679525
H          -1.82888998672994    1.48987415169534    1.07333249928915
H          -0.15960762953477   -0.58585123930818   -0.96847917565779
O           0.89400506439258   -1.29467189953990   -1.78156942994500
H           0.68420652442424   -2.21115825508998   -1.51930164375821
H           1.71754597497761   -1.08595370171565   -1.27874079690940
O           0.23969535767748   -3.39874596903573   -0.22897274950255
H          -0.55046101537012   -3.91873978639311   -0.07879316301003
H           0.25760404861069   -2.72240648001529    0.48071965856249
O           2.73215895120559   -0.78118926195480    0.06738556119264
H           2.63525741267555   -1.53688249896822    0.65310217257706
H           2.20743078731846   -0.06961102772088    0.48422644021028
O           0.18680801672908    2.57439932548106   -0.82926253605122
H           0.34279883416986    2.07493844470618   -1.63489177981179
H           0.60519548628964    2.03706760436141   -0.10539222668632
N          -2.15701741290669    2.23918714499428    0.30721817968629
H          -1.26481602342152    2.46627646435202   -0.23870369708786
H          -2.54839840827281    3.06701330510034    0.74546660541179
H          -2.83314061354598    1.79035777524416   -0.30319755766971
