    23
        -45.37992110  Gyration_radius:  2.36419650089 Dipole_moment: 3.338
 S          -0.55870489007484    0.13471240143657    1.18035117416123
O          -1.46461423925489    0.24205226555370    0.04496026801397
O           0.39810307988971    1.21647570287900    1.21592532320072
O           0.11942309254336   -1.17717914761901    1.17800528943911
O          -1.44771588180996    0.18754991234573    2.46144497593951
H          -0.84162431486940   -0.10079408348795    3.17250248100589
H           0.78706759322183   -1.30138375115055   -0.24666169303557
O          -0.79921335641953    2.01682451697206   -1.81639276743941
H          -1.09053045215000    1.43770749746863   -1.07639860107843
H          -1.07798090080851    2.90227541332393   -1.57888399350260
O           0.44632862812468   -1.09942772127789    3.78701644507653
H           0.56779445503107   -1.27159496251691    2.83193323636927
H           0.16672500076803   -1.92857765978189    4.18190776270380
O          -1.24713522400960   -0.85498622782214   -2.39383861158843
H          -1.57182026289399   -0.62844116934326   -1.49993070022752
H          -1.25043715965928   -0.01631611963099   -2.86759843599983
O           1.72529549704235    1.37179705177981   -1.05301807473702
H           1.42199916183555    1.42941346962214   -0.11833573349296
H           0.98126468878150    1.76183943293620   -1.55112964309704
N           1.12815832647146   -1.15246508593655   -1.23797872735790
H           1.81501778345364   -1.84746914068245   -1.50847239785982
H           1.52221747115874   -0.14871959599877   -1.25378315946830
H           0.27038191360813   -1.17329300885683   -1.85162441702783
