    23
        -45.37992111  Gyration_radius:  2.36417046144 Dipole_moment: 3.338
 S           0.44651982206565   -1.03446598554829    0.67385008101171
O          -0.97398647132352   -1.06417740676863    0.35357472639408
O           0.77545725285172    0.03682818949690    1.58548946224615
O           1.25282328724114   -0.95071875343972   -0.56055990603160
O           0.77713014069861   -2.40419143208207    1.34381862418941
H           1.75460195333485   -2.42931211145580    1.34272449141682
H           0.69865512812395    0.30544374695109   -1.33887418085414
O          -2.26238798069712    0.08478077217911   -1.70029378213066
H          -2.84192693650199    0.62264084559042   -1.15016364098508
H          -1.89676796423621   -0.58193903234291   -1.08578016704231
O           3.30204350648903   -2.11568204481503    0.60716444809435
H           3.64186762974255   -2.82301063055968    0.05414909385401
H           2.74708172515912   -1.55265966153609    0.03131280136546
O          -2.38299954615945    1.06251491687057    1.09449545353664
H          -2.64442631535185    1.01244500652201    2.01497747823544
H          -1.87603490899828    0.23857730612930    0.91574836135645
O          -0.03917212669808    2.35643893901653    0.64243125218775
H          -0.98190731167374    2.19239360866476    0.83773841887520
H           0.41749163584052    1.62739711564136    1.12087338785484
N           0.16689796459978    1.16332678463914   -1.65904983284135
H          -0.81387178846756    0.83965944869165   -1.87377802184928
H           0.61149964794666    1.60688382712364   -2.45501243797208
H           0.12141167572209    1.80682654099763   -0.79483613115467
