    23
        -45.37100157  Gyration_radius:  2.27821283835 Dipole_moment: 4.920
 S          -0.90870589407688   -0.80554057447499    0.00174477084546
O          -1.01897347410273   -0.05065748938204    1.24179462413498
O          -0.62604380296999   -2.20986498886004    0.20619688742024
O           0.06206288403433   -0.18071522029233   -0.90751755200043
O          -2.30335035361295   -0.66948100140681   -0.70570036858113
H          -2.19375957356683   -1.23200553843154   -1.49844638431752
H           1.60448990594473    0.06363653153997   -0.12338887968122
O          -1.06709459582125   -2.22989966892087   -2.44133731371548
H          -0.36740294467012   -1.57255045848938   -2.52550767513211
H          -0.85317113849117   -2.71165631013907   -1.62734619778784
O           1.24403514945805   -1.73844507990531    2.05818746745995
H           0.70334852699593   -1.43714876967647    2.79178585195378
H           0.61076244323375   -2.08068826978722    1.39788978623133
O           2.20219987394723    0.28487103102851    0.62032427560177
H           2.10775949952864   -0.48232202213289    1.23017520952623
H           1.36458902935070    1.34627802295550    1.21088340684670
O           0.51365981421893    1.91893956472537    1.46309322890881
H          -0.19099321669064    1.17295146522757    1.52459121282868
H           0.23996099014379    2.37789189812202    0.53388227439969
N          -0.20136188669811    2.59195733545205   -0.86374194163636
H          -1.14708735908543    2.93357202905894   -0.97301623295472
H          -0.18166474102643    1.60083306673098   -1.13020970861215
H           0.40674087390505    3.11004446696004   -1.48433672173142
