    23
        -45.37247352  Gyration_radius:  2.2554176702 Dipole_moment: 6.189
 S          -0.13486452795410    0.35069660945749    1.65493784322471
O           1.04537394175169   -0.06121617514063    0.88086081801332
O          -0.38314633297713   -0.53636179216298    2.76896470061728
O          -1.36411996133091    0.14367809389796    0.63908484540942
O          -0.12485920802737    1.75950079011200    1.93996342097697
H          -0.40164991040424    2.27139906802011    0.41879495067362
H          -1.66740999524105   -0.76485524063455    0.78394590921951
O          -1.52754657528044   -2.42646704925321    1.46748840786905
H          -1.01403481097107   -1.86113136234051    2.10278172773027
H          -2.20318492145640   -2.86390274865914    1.98857353913879
O           0.16233612397809   -1.92960107885402   -0.71534797465322
H           0.64069925465163   -1.37232556179260   -0.05793606009861
H          -0.48223032161507   -2.42074775724450   -0.19126416539034
O          -0.36430971601705    2.49993296936651   -0.54139862080925
H          -0.42814939250780    1.13590830000451   -1.39991047885988
H           0.52117944759104    2.85199621618547   -0.67365882943552
O           2.33154080860010    1.06218671236582   -1.10180245268066
H           1.90733524373334    0.73275218968934   -0.27035677362069
H           3.22296369656964    0.71113239563179   -1.08999346484552
N          -0.05677070075094    0.35978354793674   -2.03343661819168
H           0.97047666163472    0.54297080039523   -2.03233290328910
H          -0.46273984420313    0.39994878488223   -2.96150322940208
H          -0.18688893977355   -0.58527769187466   -1.57645457160614
