    23
        -45.36433295  Gyration_radius:  2.3565856376 Dipole_moment: 1.342
 S           0.96913777379509   -0.81503828140286   -0.08669555823671
O          -0.39101092655866   -1.25027547350857   -0.29032905706808
O           1.07531301873568    0.56757741113149    0.31245454444265
O           1.79136838522039   -1.06803898125777   -1.35214630174425
O           1.66678821289273   -1.69786432441945    0.94179984391859
H           1.62884683350341   -1.18583346201230    1.84404692050838
H           1.39534228614979   -0.54218215880993   -2.14159871944002
O          -0.25643848014678    2.04432681575846   -1.51383247957522
H           0.27102357198537    1.73636003886037   -0.75594065535914
H          -1.15232171903597    1.68878914810571   -1.34975450578839
O           0.80631831525497    0.37757084429786   -3.17934770055303
H           1.51229283371122    0.81857283124907   -3.65738471938456
H           0.35081508544480    1.08731685066360   -2.62817976208593
O          -2.37107829452732    0.43090505078272   -0.99465706107474
H          -2.80060402175755    0.07044352081685   -1.77262606256365
H          -1.71079997748051   -0.23439586437613   -0.72047790708307
O           1.32748795503437   -0.22515958992127    2.94311090778042
H           1.51615474991845    0.58873480236575    2.46174937669251
H           0.32933598799487   -0.30674799335782    2.92989130803462
N          -1.25189970966823   -0.48307280397095    2.39020590240226
H          -1.86990128653486   -1.09732063959030    2.90600683924757
H          -1.09401862188027   -0.89523728220197    1.47352095443731
H          -1.74215194833760    0.39056954461006    2.24018389053006
