    23
        -45.36433306  Gyration_radius:  2.35692799477 Dipole_moment: 1.335
 S           1.25747253697009    0.10442929941637    0.11009615967773
O           0.54237671157088   -0.99096372653061    0.71781792500356
O           0.39395194159609    1.07535060244659   -0.51763998848454
O           2.27453580805374   -0.43375633453067   -0.89875500184531
O           2.14613283008305    0.79944140954059    1.13526390579195
H           1.62929925922501    1.64279193260341    1.45082699439019
H           1.79321162393402   -0.96468561170597   -1.63557272614660
O           0.96412334607421   -1.59462608344143   -2.72467963407499
H           0.07155369240596   -1.13730911569704   -2.62916368797069
H           1.30947904219780   -1.33610424597931   -3.58221342794177
O          -1.19613060642196   -0.25849780505390   -2.24516096647829
H          -0.74689106648864    0.41974085023309   -1.71072957071024
H          -1.68039165564108   -0.80343045764395   -1.59360211851279
O          -1.87650168780631   -1.81179023333803   -0.13120405147714
H          -1.82544457722018   -2.75479431772799   -0.29820567515218
H          -1.01199205011574   -1.55913893754569    0.24616016195270
O           0.59422061767922    2.68222305300800    1.71433826527149
H          -0.10407320178699    2.08382704539765    2.11055853779269
H           0.31351331816140    2.82102831245960    0.80234819062272
N          -1.08289272173473    0.74909954105092    2.40682383207289
H          -0.53712858285932    0.01128447658295    1.96750449141216
H          -1.97934837957929    0.77350598234621    1.93580266523977
H          -1.24907621832567    0.48237436403282    3.36938572945529
