    23
        -45.36965420  Gyration_radius:  2.2618326895 Dipole_moment: 3.838
 S           0.01079351889926    1.27037003505074    0.45250926228338
O           1.32468378739858    1.69808468544773    0.04076789783587
O           0.05420125529857   -0.05256681342252    1.09658860003123
O          -0.93697247339179    1.21328637371145   -0.67807191026484
O          -0.54754034617319    2.27564319804317    1.48202025211960
H          -1.46123895078057    1.90523600253067    1.65958187505540
H          -0.53901331138903    0.28445175411836   -1.70282161657612
O          -0.12064420423854   -0.50841319866557   -2.26231257555838
H          -0.29062765613746   -1.31371326436643   -1.65229803006780
H           0.93007061682371   -0.31300975458993   -2.18886592812986
O          -0.40444136114012   -2.18997474105001   -0.36631110535800
H           0.41067224528185   -2.67560444885357   -0.20460514201854
H          -0.38380462003855   -1.44279250490752    0.27829607305268
O           2.29629911996302   -1.36938728167579    0.55468707447459
H           1.52598665928184   -0.84039321016035    0.86339452152300
H           3.02715113409943   -1.12218016562512    1.12298663124097
O           2.25841312582394    0.01952606032669   -1.73949040339792
H           2.06473860245248    0.82717103592611   -1.20795300463375
H           2.47489688878183   -0.64798347331260   -1.05311776929541
N          -2.77134521391122    0.93211818498253    1.47927205200132
H          -3.74208211911221    1.15343793569379    1.65872768565277
H          -2.55865671675494    0.03223682427077    1.88969987819816
H          -2.62153999106883    0.86445677655076    0.47731570183874
