    23
        -45.37905393  Gyration_radius:  2.36330799768 Dipole_moment: 3.622
 S          -0.79308672666255    0.26522787734386    1.00107352726438
O          -0.80865742615944    1.46058931594494    0.16158145215359
O           0.56277713386724   -0.13383616037141    1.35196385826896
O          -1.51105697808754   -0.83425603335464    0.36231276987891
O          -1.51618513608220    0.60594816691030    2.33880934173164
H          -2.31582600391374    1.09260038686710    2.04917621917482
H          -0.73909676201019   -1.27764933584065   -0.88205469529127
O           0.81098327621258    0.98672432051000   -1.90468681313054
H           0.16931097715069    1.34215888395166   -1.25495994898969
H           1.66324160558260    1.00310667124256   -1.41856933321654
O           2.72931346269488    0.64696669981021   -0.06153683696288
H           3.17802694006844   -0.20207332364359   -0.06643740230537
H           2.00201510666740    0.55080181153036    0.58145537000652
O           1.68516240607409   -2.29088541319199    0.33151565573055
H           1.51841678892259   -3.04600973560272    0.89737142415539
H           1.29985680957440   -1.51361930043231    0.80283819103328
O          -3.18648436894455    2.15283964716437    1.00605346934598
H          -3.20147206039685    3.07762746355838    1.26344921183957
H          -2.38873881213802    2.03290713664021    0.45030994192033
N           0.01973851819205   -1.46706498895551   -1.61382082361468
H           0.76937852295393   -1.97188673375155   -1.09813661011868
H           0.38311347761113   -0.48678936630587   -1.89172932351027
H          -0.33073075117321   -1.99342798002009   -2.40597862535865
