    23
        -45.36588502  Gyration_radius:  2.32657318967 Dipole_moment: 2.911
 S           0.49067826233136   -1.21010202081651   -0.72394028129551
O           0.49532958865698   -2.47305711863124   -0.05152892423810
O           1.37547640990319   -0.22616469770313   -0.15089208545338
O          -0.94832279345400   -0.62854063576289   -0.74598562262542
O           0.77430963060970   -1.41007597341729   -2.20470864290204
H           0.45699847973821   -0.55500011550542   -2.68250358235750
H          -1.14230109375680   -0.00970416189728    0.04208661797844
O          -0.18406092521511    0.71153093827755   -3.18030390087733
H          -0.00570591041148    1.38237191522330   -2.44753106057063
H          -1.12552604060324    0.52498138918013   -3.14431963291602
O          -1.42116653116768    0.88320374597145    1.24624804247531
H          -2.08710799375883    0.43613446495739    1.77392451063103
H          -0.56614551438213    0.80907372440887    1.77234534417524
O           0.81269221931003    0.33818776036559    2.43278213973111
H           0.52816313116221   -0.55484996679205    2.70598749364748
H           1.29551449274534    0.20117426807854    1.60012619195224
O          -0.23462373902780   -2.15871263213617    2.49746215182352
H          -0.00669651131694   -2.35660116521245    1.56653839216753
H           0.04813265230488   -2.92138308911624    3.00518663760937
N           0.28086642825743    2.22586824614677   -1.07814021998073
H          -0.51122481098124    2.35914678939318   -0.46035774007377
H           0.78813997893790    3.09982920541321   -1.13064919671970
H           0.88658059012155    1.53268912957025   -0.64182664217570
