    23
        -45.37539427  Gyration_radius:  2.27751225858 Dipole_moment: 4.496
 S          -1.45487606484974   -0.60231316561817    0.81944522640820
O          -0.52744172189052   -1.61722531578298    1.28379198007555
O          -1.72055300452618   -0.67820547007239   -0.60640476693058
O          -1.06112423216168    0.73739734293723    1.23442107128957
O          -2.82723901908044   -0.90971045129108    1.54875790887388
H          -3.43773579204139   -0.27568863744587    1.18375232363641
H          -0.24264318418230    1.77455628911263    0.03452776646447
O           2.28884670893172    0.38314931078405   -0.39381765092220
H           1.86104723773224   -0.36438666982373   -0.86362166762189
H           1.90003948348162    0.17026750346009    1.00070807507509
O           0.35220100180956    2.12337087613193   -0.65132644095660
H          -0.08836678100736    1.90555380270718   -1.49606640934290
H           1.70289192045079    1.16393623574511   -0.59102234941534
O           0.68888290333823   -1.58688245234758   -1.31102881477579
H          -0.22093511241014   -1.28623518129372   -1.11677440826315
H           0.79538204585240   -2.38864301725301   -0.79505608577951
O          -0.95392110006171    0.89714914568245   -2.69173800216744
H          -1.40948808670386    0.36225077612070   -2.01922171653014
H          -0.35653349396939    0.29352026701002   -3.13969931712349
N           1.35710729140717    0.01466825106533    1.95707423831445
H           1.95550393240610   -0.01040491868232    2.77502319936588
H           0.76776423233118   -0.85145506785090    1.83173829315515
H           0.63119083512614    0.74533055670841    2.00653755716119
