    23
        -45.37099108  Gyration_radius:  2.403446644 Dipole_moment: 3.739
 S          -1.37249960217114    0.74747012572239   -1.55760487111522
O          -2.01854736467313   -0.26348774808078   -0.73291975912223
O          -0.54844549380536    0.18007833636148   -2.61203281608285
O          -0.65809002073451    1.72933430204918   -0.76563602325964
O          -2.55762443484599    1.52124382161355   -2.28347373418403
H          -2.08711673310403    2.16980329642711   -2.79751075602871
H          -0.04003343838181    2.02037397499171    0.80957454641641
O           1.42099692429380   -0.78074102567954   -1.30438615636350
H           0.64465172806861   -0.38289468556412   -1.79391947938703
H           2.04894514696671   -1.03088280280393   -1.98543027364770
O           0.29496067743599    1.80695045125646    1.70549444282683
H          -0.50635758703702    0.51368549015535    1.81658921692786
H           1.20464987636938    1.48078983621384    1.55202043541039
O           0.64402884712347   -2.33646347398386    0.74896981163572
H           0.11780333327973   -3.04583547821149    0.37588727306182
H           0.95367289205125   -1.80680970076213   -0.01836428718423
O           2.45914348660387    0.35206047296323    0.98346901944156
H           2.13747592794041    0.13136644427252    0.09185453174506
H           2.52095203325747   -0.48223869661403    1.45361825010160
N          -1.04365126329902   -0.41351337549385    1.65956357250552
H          -1.70501151243053   -0.60210667797270    2.40378115272306
H          -0.36914696790560   -1.19625359230508    1.53207933490046
H          -1.54075646500402   -0.31192930455357    0.71837658867902
