    23
        -45.37323853  Gyration_radius:  2.35059640748 Dipole_moment: 2.875
 S           1.81773997458282   -0.50869046304907   -0.06491334887553
O           1.59874660217812    0.92610598263040   -0.05962892705800
O           1.22185000176302   -1.19325341161208   -1.19331756642200
O           1.44813737965568   -1.12080336690696    1.21243568284555
O           3.38893119116258   -0.69237746800943   -0.20320397457596
H           3.52044755976342   -1.62338170648763   -0.36112969875270
H          -0.07185087181397   -1.94595582048664    0.81318453219580
O          -0.89433796636803   -2.09215263300664    0.31479347479304
H          -1.93653674669823   -0.80113707892433    0.78877471646606
H          -0.60208110623488   -2.04980071807040   -0.60287946509893
O           0.20156969817417    0.94310178641060   -2.40953974592887
H           0.75881536398026    1.51823901550935   -1.87300895861115
H           0.50742079397536    0.05041009138094   -2.16095528734722
O          -2.24236643361484    0.10279626519921    1.03237661799556
H          -2.34194194510660    0.58145469278449    0.17745114575980
H          -1.02327977313826    0.64591996703876    1.64445924392609
O          -2.21675649735724    1.28544620561474   -1.34900063045097
H          -1.32829485531276    1.18333210752477   -1.76904902030254
H          -2.85698515624374    1.06836776432063   -2.02765063233622
N          -0.00289415562220    0.90566865289923    1.98511734155847
H           0.53179787522169    1.30611957974146    1.18102285648398
H           0.51333338248661    0.01097618575972    2.11792093120188
H           0.00853571456817    1.49961437011882    2.80674071236876
