    23
        -45.36690600  Gyration_radius:  2.38177602137 Dipole_moment: 1.612
 S          -0.99377188456355    0.02303732493077    0.85142635872843
O          -1.80315688877827   -1.15519400061324    0.94351784597440
O          -1.08557962859044    0.69725353193288   -0.42538389346253
O           0.48453125347298   -0.31650696827465    1.12099525651798
O          -1.32569655153752    0.97945411089128    1.98564030727535
H          -0.50206205059557    1.58926619024344    2.10654329683874
H           0.84399353417565   -1.02580023082773    0.42098299408160
O           1.19034457752668   -1.96676480485277   -0.60362845751609
H           0.94745863098920   -1.48745548771429   -1.42990500261925
H           0.50170683196229   -2.66405690176746   -0.51249686120431
O          -0.03471456065530   -0.58293791580272   -2.51391080457443
H          -0.72185083964421   -1.12585972540213   -2.90602654903411
H          -0.47785509160827   -0.03196935263234   -1.83734944664229
O           0.81949304873354    2.29156262735196    2.13545081639008
H           0.93245267951579    2.57040964034786    1.17568513669853
H           1.42547859157116    1.55682213015246    2.26871111123039
O          -1.03961138564998   -3.38325290725881   -0.29073068072036
H          -1.45674966008813   -2.60626789720166    0.13555533706492
H          -1.17345274378306   -4.11890205305664    0.30933492259370
N           0.92592310567424    2.70965298553494   -0.46644291172358
H           0.14648787908061    2.07267561071704   -0.63208420133069
H           1.72057250828762    2.36166432683762   -0.98829882017180
H           0.67605863449950    3.61316975647574   -0.84758574439001
