    23
        -45.37184517  Gyration_radius:  2.26821056343 Dipole_moment: 3.124
 S           1.15201998154869    1.35248252774192   -0.08107157418080
O          -0.18382385488818    1.74626657402297    0.32747327327537
O           1.29263874993392    1.15472050266914   -1.50933502248375
O           1.62106672085205    0.20106816924303    0.68549857338369
O           2.11033904403643    2.56180804093899    0.27849012661489
H           2.70120120301611    2.58395884445276   -0.46732999275497
H           0.61686378185503   -0.77807164899505    1.27930527590838
O          -1.42765841310598    0.36604572653031   -1.57483354508694
H          -0.87630047424392    0.54133756863941   -2.34260229264073
H          -1.06634777597279    0.95122716837161   -0.88108303151254
O          -0.70142565196953   -2.08622158993969   -0.82177758208302
H           0.20108570520441   -2.05523323272506   -1.22369803651211
H          -1.14317617531767   -1.26972450495961   -1.15332563291630
O          -0.15793956053475   -1.40071345473256    1.50643017611321
H          -0.96200177023115   -0.74118468309147    1.77326790309563
H          -0.42933105996414   -1.80534707744083    0.55137745189099
O           1.76084042878411   -1.46508843230470   -1.58036886036140
H           2.28123323236493   -1.53067740386146   -0.77493431795064
H           1.62103076224302   -0.50424623779532   -1.70328113922683
N          -1.96011093898414    0.32291663549383    1.93975843212784
H          -2.81750727046215    0.16199513436940    1.42655664518669
H          -1.44251187787568    1.06938800337769    1.46800164127336
H          -2.19018479619293    0.62329339032079    2.87748153835959
