    23
        -45.35466098  Gyration_radius:  2.35960955669 Dipole_moment: 1.538
 S          -0.27266638090447   -1.02383197553891   -1.04292525930676
O          -1.07068599190258   -1.86610311536706   -0.20502032228532
O           0.17885489982948   -1.59170100465791   -2.27121105791672
O           0.99274212005173   -0.56288990125201   -0.20340142304464
O          -0.99164211330515    0.30428666366916   -1.24903931758343
H          -0.35380017868756    1.00991936913988   -1.70120557306799
H           1.48874030363227   -1.40155768573858   -0.09951603382720
O           1.35749361634808    2.23872892267278    0.33241359688722
H           0.45700314189297    2.27363601977160    0.74183851325329
H           1.64144724313257    1.32475999732432    0.43579391605912
O          -1.15886047105758    1.93333532174529    1.12488928108961
H          -1.52272808411940    1.58269902037133    0.30560535031320
H          -1.14210440608550    1.15658371150559    1.73276488492819
O           1.46880984689066   -3.12770229839081   -0.43510254250703
H           0.62484067748405   -3.42031307236495   -0.07575632850068
H           1.31841010287116   -3.01158195202291   -1.38347899402940
O           0.53395270541456    2.08139998476037   -2.10399595101863
H           0.97866419077045    2.24297463827347   -1.21089043956470
H           0.02894972454805    2.87354525267848   -2.30489230512320
N          -1.13055972824259   -0.48214377351268    2.35246260367561
H          -1.18833659376637   -1.02330406574934    1.49092939249436
H          -1.93462451800416   -0.72351161862546    2.91869591576865
H          -0.30390009681942   -0.78722842874789    2.85104208338020
