    23
        -45.35873787  Gyration_radius:  2.36100621251 Dipole_moment: 0.965
 S          -1.05735854427138   -0.32830623295112    0.69439517080080
O          -0.05879068099788    0.71573283853384    0.81180323893493
O          -0.60118522272262   -1.53233001823720    0.07005837593430
O          -2.27242624730357    0.23751695548673   -0.01632871575524
O          -1.57406204150959   -0.68363344357939    2.10536972783022
H          -1.57423369919881    0.15853129534569    2.62944989846611
H          -1.91995147715791    0.87354160042308   -0.80693492818577
O          -1.04194926800169    1.66838173334339    3.06965542236861
H          -0.41549335689633    1.68312904396593    3.79758670229513
H          -0.52052801891403    1.64583505924522    2.24558447653790
O           2.32325248205948    0.30695994961425   -0.58834924331729
H           2.54222417296547   -0.56550423440037   -0.22890266502900
H           1.59725530757409    0.61555781603967   -0.02886762420121
O           1.98849891442909   -2.21710272864216    0.54781944445876
H           1.04397573033898   -2.02069363770249    0.41923642939109
H           2.09699687424706   -3.15204656454110    0.36547566687439
O          -1.21863434361950    1.62672862942594   -1.76573268096636
H          -0.61949504848551    2.17680510870268   -1.25290710869582
H          -0.62409330373260    0.88733327988066   -2.18281225878885
N           0.30672924739272   -0.31367974234038   -2.48060912769024
H          -0.08319454720252   -1.07881318368769   -1.94012350086023
H           1.20021084324333   -0.07127889192290   -2.04075570441379
H           0.48225222776418   -0.63266464203140   -3.42411097599649
