    23
        -45.36688821  Gyration_radius:  2.25030600534 Dipole_moment: 8.635
 S          -0.92866480642883    0.30179862004618   -1.28137350579752
O          -1.57516829342573    1.62284740618370   -1.25317924201936
O          -1.13788947199436   -0.45659796976809   -2.47139747089615
O          -1.24147557511030   -0.42502205816373   -0.04140524415038
O           0.63036299000310    0.59932540598577   -1.21977637943244
H           0.83071202139601    1.09099740256016   -0.39655343292598
H          -1.61561986258614    0.76175539722121    1.20013322314201
O           1.15386517090023    1.60774398207734    1.23203803174242
H           1.11875329269909    0.62245242892384    1.48489723288159
H           2.05902004853508    1.88991144164572    1.37090805170768
O          -0.17013893167784   -2.74296433775817   -1.44559158220314
H          -0.77621623957128   -2.79786577292813   -0.70309362805751
H          -0.50192211013800   -2.00217088004093   -1.98593217130324
O           0.86051938022928   -0.90737252740030    1.55043857922422
H           0.01934534489393   -0.92805341536809    1.05491009797516
H           1.50563271838557   -1.30936511132759    0.91914134760902
O           2.18878231918380   -1.73468746323961   -0.59545568041646
H           2.11089198187928   -0.93227045748093   -1.12222185033320
H           1.47052929577024   -2.31088243387042   -0.93061485028823
N          -1.54104662254392    1.79959617597464    1.22451411510444
H          -1.63724592517216    1.95350976269400    0.11778517562801
H          -0.57743637485524    2.04286544409451    1.49795666147713
H          -2.24559037031553    2.25444894997293    1.79387253131954
