    23
        -45.35179270  Gyration_radius:  2.401631492 Dipole_moment: 3.915
 S          -1.59948651243257    1.38114138637428   -0.43570288263259
O          -2.71825070582539    2.16162847033809   -0.07411412949530
O          -0.80248271728905    0.86616471938534    0.66812793592330
O          -0.63352385860744    2.21714542077817   -1.33698201972901
O          -2.02463851154230    0.20431127656836   -1.31205684362598
H          -1.25591322323229   -0.10504048559123   -1.92912665907007
H           0.27846622147205    1.88223547656748   -1.22467713808433
O          -0.14310947856690   -0.53553080400963   -2.79721304892606
H          -0.44541515458854   -1.25927757566673   -3.34969010982170
H           0.60663623179316   -0.90784327801836   -2.23015563957633
O           1.66796183864907   -1.41224613211171   -1.18651269474155
H           2.01714521491638   -0.57033348603809   -0.86686999834160
H           1.06702206276543   -1.73849151871688   -0.47557390014516
O          -0.17178938857629   -1.83461927642908    0.68673676986261
H           0.12450345520703   -1.78826125211467    1.61136962517829
H          -0.65109241945289   -1.00329523039078    0.56123062200881
O           1.60712950096652    1.22473217434566   -0.23299872048140
H           2.10285685682212    1.89011577829831    0.24743888676969
H           0.82609563057236    0.99085958780643    0.31597872922924
N           0.13118671218765   -0.62171917401185    3.17970129522920
H           0.88035532699855   -0.21367538021716    3.72534227428634
H          -0.57400012303315   -0.94678154767758    3.83000444654298
H          -0.28965698918653    0.11878084054825    2.62574321961046
