    23
        -45.36845391  Gyration_radius:  2.3699015233 Dipole_moment: 6.747
 S          -1.43406748813439    0.73790189809005   -0.78952843755950
O          -0.58842806376862    1.70307085613225   -0.08071372906647
O          -1.05852334247888    0.53106247733005   -2.15889912037508
O          -2.88567089478231    1.39598217696893   -0.81856941508852
O          -1.59936831677233   -0.48061088473188   -0.00712253475398
H          -1.00367982956643   -0.27991476779752    1.56820501158259
H          -2.88836903111540    1.88176929029068   -1.63743704903090
O           1.32752957859499   -0.80295236389205   -2.15245331989777
H           0.98390074158314   -1.61642496826456   -1.74254271542919
H           0.53457222804943   -0.28785191308161   -2.37608516684615
O          -0.33498325622382   -2.65582568897447   -0.98699562695103
H          -0.88622111149217   -3.01544074334480   -1.68426482428439
H          -0.83629333640371   -1.91375935671965   -0.60168457899648
O           2.03687232010949   -0.24772043239310    2.14595465098971
H           2.72216646308468    0.19829710754061    2.64562282075902
H           2.13078699354280    0.08170147713074    1.20023843068036
O           2.02375649698867    0.84154006571890   -0.19778314579510
H           1.97123755119763    0.20190409480188   -0.94777901967762
H           1.18239072661265    1.32361274139865   -0.23560962293684
N          -0.48574087719390    0.42598459357721    2.13819499558777
H          -0.96387024577217    0.66184952907763    3.00049594141831
H          -0.47111061856052    1.21409245231675    1.42890540048706
H           0.52311330247011    0.10173237882827    2.28985104519066
