    23
        -45.36599733  Gyration_radius:  2.3896678666 Dipole_moment: 5.625
 S          -0.71385448014482    0.13007940321139   -0.78051359890021
O          -0.10995652452626   -0.05664812928077    0.55578027105157
O          -2.12744533004074   -0.11971235369277   -0.77407373003434
O           0.00514877265292   -0.91423095936259   -1.70454294122326
O          -0.34870953418899    1.43661481702377   -1.32049461184725
H           0.91914527571034    1.99197184090649   -0.99237588656684
H          -0.14083911712505   -1.76882960738349   -1.21197549413368
O          -0.45870551115591   -2.72911715336479    0.05465598718699
H          -1.41603216803986   -2.91172725845764   -0.04166936198357
H          -0.38915461268061   -1.98591397341030    0.66997187825600
O           1.84684526125511    2.24317842742339   -0.54334436896987
H           2.29895297773368    1.33562145894720   -0.50255278739294
H           1.51678082398798    2.40300715449700    0.47857240441600
O           2.38186317195732   -0.23604948970710   -0.26671765404281
H           2.31365904579291   -0.75947806561960   -1.07017646384481
H           1.49499495644933   -0.29943153089170    0.15851649456288
O          -3.11108865022554   -2.53286714986004   -0.30568909121221
H          -2.86824106484327   -1.62047352965532   -0.57265323838129
H          -3.84084678662461   -2.44402976347919    0.30927901420016
N           0.83884077202723    2.28168404643804    1.76403779823450
H           1.41088041991411    2.14143008645844    2.58656821171872
H           0.33943602976691    1.40997303914679    1.55388594833240
H           0.15832625246054    3.00494868997365    1.95551124054193
