    23
        -45.35603103  Gyration_radius:  2.40832265225 Dipole_moment: 1.666
 S          -0.60182097977615    0.70798288179846    2.02528838010498
O          -0.54062122594857    2.13391748730134    1.85434161805055
O           0.69463372806836    0.05713081724777    1.97497044775643
O          -1.54696226049440    0.08237742659694    1.07889262325187
O          -1.18941074946476    0.41905762233475    3.46967563053867
H          -1.80686671977086    1.12883496553689    3.62747396356169
H          -1.39832281970506    0.72020675215835   -0.14218371271391
O           1.35079695626887    1.47657866437248   -0.11790616825752
H           1.40512588066864    2.36462133787927    0.24781274929732
H           1.23690694102913    0.89709772846128    0.67624644001999
O           1.58220599318674   -0.98996077696741   -1.73312916074896
H           1.86969296084023   -0.17686583582276   -1.30442537625189
H           1.22271644099107   -1.56118906777380   -0.99766805967240
O          -1.05011794678752    1.21862823453923   -1.03402293090566
H          -1.00170373549073    0.51527604587838   -1.80437122762175
H          -0.08918568395641    1.42737239685625   -0.77741526630644
O          -0.67429828864987   -0.47318165993051   -2.86438935460349
H          -0.52975447044916   -0.11265397215727   -3.74076007950445
H           0.22495183738579   -0.76969111456090   -2.51754086182243
N           0.35468970815032   -2.21165393600392    0.28572552177122
H           0.53252095711357   -1.52897002537438    1.02201281556392
H           0.60079988790618   -3.12514579150362    0.64552005884900
H          -0.64597642110983   -2.19977018087289    0.12585195963028
