    23
        -45.38101005  Gyration_radius:  2.35692651927 Dipole_moment: 2.418
 S           0.64736345868472    0.85940430496680    0.80123116867021
O          -0.06824019681619   -0.15236469353690    1.58129380245369
O          -0.22668349276574    1.48354239483195   -0.18153490185310
O           1.83677865432305    0.29743608165137    0.17597273208381
O           1.09132797754904    1.98617561826681    1.78394625917945
H           1.51147116981977    1.49069394950102    2.51526162410068
H          -0.21269905017045    1.34662428621024   -1.97008668468296
O           1.63023689850855    0.10591150882362    3.56347366603373
H           0.99081746761623   -0.25930067175672    2.91846495820364
H           1.17283504221018    0.15019569759957    4.40632762877629
O          -1.06705958644360   -1.92293263178357   -0.13987125457842
H          -1.78389125746515   -1.34798757903879   -0.46886795115644
H          -0.71279154686436   -1.42813592410446    0.62920236466331
O          -2.49921103911820    0.28343675175800   -0.82616137415238
H          -1.70784493749149    0.77888145274243   -0.51410656561652
H          -3.22289508867630    0.56160056339468   -0.26336422466977
O          -0.39714483401252    0.87286905098174   -2.80430254952048
H           0.44569775535535   -0.47580231359953   -2.35485954129804
H          -1.34224716365367    0.68877158247587   -2.76957816919166
N           0.88902047077818   -1.18670058852464   -1.71701986948655
H           0.11021271073331   -1.66987367034687   -1.16831446772296
H           1.42749008370636   -0.62453887508510   -0.98498628271556
H           1.48745650420482   -1.83790631543290   -2.21212037752246
