    23
        -45.36074194  Gyration_radius:  2.35556768369 Dipole_moment: 2.323
 S          -1.27337520372806    0.97196446299283    0.79036173484382
O          -0.03232369057068    1.56123742590879    0.33506780239747
O          -1.44839624621021    0.87776449631994    2.20884299924178
O          -1.51873627873822   -0.31403851446733    0.10369276610490
O          -2.42039747085555    1.93813515517300    0.25201390485011
H          -3.12994348084817    1.78964727261717    0.86891636889623
H          -1.08242394537930   -0.40727311824606   -1.25163982512719
O           1.37413817260533   -1.87127299272774   -1.55078667358190
H           1.39741242028066   -2.75827095170670   -1.91441877161486
H           1.10729286213703   -1.97769390240829   -0.57569788359478
O           0.43062212605664   -2.08054294901509    0.81959552576250
H           0.89186919247335   -1.49377074291615    1.46908428610967
H          -0.41910055356046   -1.63138131493998    0.67412671780132
O          -0.60998976157001   -0.46430434384925   -2.19780095476365
H          -0.24777444716438    0.48862612530294   -2.34899800765139
H           0.22712542782437   -1.06918407355740   -2.01769690536033
O           0.33793784107036    1.88398450124362   -2.18884508002527
H           0.17177926355129    1.92205758462012   -1.20834784403856
H           1.28961846714018    1.94122178366272   -2.29989728266346
N           1.25189455653691   -0.08541260940342    2.39794333676667
H           0.29713749342458    0.21175502499308    2.58987016019572
H           1.63520769969732    0.61783809157192    1.77715098715063
H           1.77042555580143   -0.05108642115117    3.26746265803838
