    23
        -45.37122942  Gyration_radius:  2.32320840984 Dipole_moment: 5.273
 S          -1.00994983024086    0.28261696309716   -0.23983419712314
O          -2.14981194025618    0.05699678170765   -1.07627211683624
O           0.26781318448326    0.01039129944824   -0.91602833776558
O          -1.05454316308048   -0.72357373740128    0.97865125625047
O          -0.95415721192350    1.59919100024843    0.40207069020086
H          -0.04299280226499    1.35415394195948    1.51291435662494
H          -1.52253089559814   -1.53483954627733    0.61115638231270
O          -2.27873724597976   -2.52702361600545   -0.35726664790562
H          -2.71630033274879   -1.77353054190067   -0.78346933853711
H          -1.54807561379749   -2.75977126733831   -0.96849010285642
O          -0.22410833411590   -2.33874057010882   -2.07901613120555
H          -0.51034060360194   -2.14377736726186   -2.97343352447115
H           0.04174480060796   -1.48060668035329   -1.69179361757553
O           2.51303128853847    0.31029388887581    0.52661160752678
H           1.83269299064685   -0.07945825571615   -0.06038092776185
H           2.71663186818584    1.15491288069346    0.09455488469018
O           1.48953922827671    2.46959783252384   -0.83962921993856
H           0.80191238152382    3.07642387223331   -0.55774026641607
H           1.01363754153720    1.65895195540970   -1.08540994887595
N           0.67166559351890    0.95976715987029    2.24646653459340
H           1.54296601427726    0.69806200126442    1.66220892080848
H           0.24215115385312    0.10858786237422    2.60605517505945
H           0.87776191817313    1.62137415295011    2.98807456943488
