    23
        -45.35506502  Gyration_radius:  2.50317664942 Dipole_moment: 1.382
 S           0.73329188404121   -2.19201785186764   -0.48546584782796
O           0.49690745029528   -2.89258881968541    0.73950222382247
O           1.51565843962566   -0.99104258246182   -0.36533665897347
O          -0.55336025501057   -1.93084736122111   -1.23317976020204
O           1.50824736039298   -3.14873399455405   -1.46846462205921
H           1.09769939660446   -4.00672051424039   -1.38391887382828
H          -1.27626815476339   -1.38842079098368   -0.56977209559701
O           0.17258620527487   -0.35817977906303    1.87437103156345
H           0.79921004003567   -0.44428407210570    1.13214016962160
H           0.23813599161171   -1.19571299787899    2.34356425557668
O          -0.19711565263953    2.38880433640371    1.03893567878513
H           0.52990734700091    2.33127179918658    0.37044957706820
H          -0.07100724942637    1.62567201566686    1.61392917319308
O          -2.24339746550986    1.76352268748124   -0.47909347186631
H          -3.01923200814288    2.23576276672552   -0.17364872495572
H          -1.47873536256535    2.09918667036617    0.06539568718160
O          -1.98746712450923   -0.69605873897958    0.31674646897977
H          -2.16790628826140    0.20673324939093   -0.08514453930425
H          -1.32691466256678   -0.53528441797372    1.02972802455619
N           1.64904585266834    1.89316789817244   -0.87283890498990
H           1.70794558858487    0.88148083245755   -0.78441563661466
H           2.59152416664545    2.25991131347996   -0.82898508901392
H           1.28124450061299    2.09437835167481   -1.79449807509974
