    23
        -45.37141692  Gyration_radius:  2.2778909251 Dipole_moment: 7.141
 S          -0.10320446151161   -0.75049242016081    1.10608402461088
O           0.10967448402967    0.67916248199570    0.87240726546947
O           1.09407741642237   -1.43249863918444    1.50790170091954
O          -0.60111319097953   -1.34788796453118   -0.27534327174941
O          -1.26934096598562   -0.96673366561301    1.96464729087534
H          -2.28790141319426   -0.48695420220414    1.10416022577770
H          -0.03430979205897   -0.99649231553028   -1.01256944719549
O           0.84882081929092   -0.30086944022944   -2.15978838530419
H           1.07686387409900   -0.89803545348356   -2.87489359842572
H           1.65643619277075   -0.28600531953367   -1.55675893031581
O          -1.37280251209563    1.35732897937438   -1.12982414034974
H          -0.86997038627625    0.97009445140238   -1.85583113136158
H          -0.74357316204716    1.32344104549999   -0.36810592221593
O           2.59498041984129    1.66123578832148    1.15334556616701
H           1.64702796648272    1.43375715342764    1.08304511760062
H           2.86104935617059    1.39796928466219    2.03621267417984
O           2.73699629942272   -0.53361941022236   -0.42049624256681
H           2.93103777362834    0.33554225358482   -0.01632414770840
H           2.26548171837938   -1.01898357932016    0.28489031630057
N          -3.00061315200711   -0.11901773971153    0.32460906716947
H          -3.74309856733801    0.43124138028855    0.74582754935703
H          -3.37754927890035   -0.92790254937390   -0.16056887165587
H          -2.41896944814111    0.47571987054161   -0.35262671957741
