    23
        -45.37141692  Gyration_radius:  2.27788998984 Dipole_moment: 7.139
 S           0.23133686339220   -0.04765018525703    1.31988459513629
O           1.61104854055614   -0.13201190148302    1.70636867342894
O          -0.14111956654247   -1.05348081139117    0.32321673172197
O          -0.03054061189435    1.35910837893934    0.63757085531320
O          -0.73155368799477   -0.03043343433482    2.42278713126238
H          -1.88046356325238    0.41914942399837    1.72592232813417
H           0.33134731033812    1.35165767904773   -0.28827280029585
O          -1.82648822929247    0.05343558737552   -1.28964322123099
H          -1.21344617529948   -0.55647223345135   -0.81069056741945
H          -1.23257434523125    0.61548087866684   -1.80077734354871
O           0.83729861568084    1.22757037886486   -1.80779746539961
H           1.26122278161912    2.02507546329215   -2.13063719432727
H           1.59084345839138    0.61935136382302   -1.52790860774673
O           2.71339519555985   -0.18481987555230   -0.74472999677639
H           2.56193718805314   -1.13434571085325   -0.92333643167546
H           2.49063403555764   -0.08692842748455    0.20198919031391
O           1.76516282207829   -2.71297287913067   -0.58906108744910
H           0.98135176081152   -2.21226841196079   -0.28860046908880
H           2.13752061605626   -3.11146953909607    0.19971768167137
N          -2.70234808972095    0.81258038431435    1.07713365124428
H          -2.42009072261905    0.58266191460741    0.06812219931859
H          -2.74573937409922    1.81943294619455    1.20414333167558
H          -3.58873485215189    0.37734900086908    1.31459883573509
