    23
        -45.37611081  Gyration_radius:  2.37889897857 Dipole_moment: 2.483
 S           1.11874288593129    0.84194889849180    1.42864502388233
O          -0.26119426393867    1.04407664868820    1.86326976304478
O           1.32512711291606    1.32404823838215    0.07138771833626
O           1.56982855114228   -0.51538085359332    1.63359031510542
O           2.02022734161051    1.75550517040875    2.35885188118897
H           2.03536772450779    1.23045761767308    3.15170237972863
H           0.84407338390984   -1.69298802858520    0.62976079632691
O           0.43874497965932   -2.18686188724588   -0.11199847779805
H           0.81201614989457   -1.77018934749796   -0.90769589888158
H          -1.17023607019331   -2.13301900935124   -0.12679682689235
O          -2.15290409682070   -1.97141266617455   -0.04073881666712
H          -2.41288042259736   -2.41269819181671    0.76932241283299
H          -2.17140106950240   -0.37217628119281   -0.05817889560426
O           1.67754720298401   -0.46724649695031   -1.85415549920896
H           1.65779180881511    0.17707627643493   -1.11208212379776
H           2.60024831974895   -0.68423018792699   -1.99389970566981
O          -0.41826948283929    1.54402074315345   -1.96034920258209
H          -0.01934097748479    0.83168900058262   -2.47323014447183
H           0.24956417060394    1.74785493172737   -1.27704373063218
N          -2.00929954108883    0.67280493072793   -0.01532444076725
H          -1.33561863548080    0.85990536112487    0.79360212501196
H          -2.87910983979374    1.17560264243130    0.12183079698858
H          -1.51902523197786    1.00121248053640   -0.89046946946496
