    23
        -45.38129260  Gyration_radius:  2.28548212758 Dipole_moment: 2.176
 S          -1.36455968091145   -1.10791347246397    0.44205918340185
O          -1.75578758473424   -0.10911248127449   -0.54875532969027
O          -0.59548186616167   -2.18067945138367   -0.15127193619367
O          -2.70256801352440   -1.76245419655987    0.98075154013528
O          -0.73335654974812   -0.49480689364682    1.59705513604373
H          -0.03918122264482    0.90848662283913    1.32397388845121
H          -2.93155601441613   -2.38113257854195    0.29441304636739
O          -1.15643049153535    2.43797878586008   -1.01477462046646
H          -1.59431987426440    1.57436837192438   -0.86728421637681
H          -0.73926710846499    2.36470196208101   -1.87705931767168
O           0.42015869219194   -0.33789515379602   -2.06872781502232
H          -0.41963581302969   -0.24981096446760   -1.57624925668060
H           0.56129023412547   -1.28659816074983   -2.12419864299771
O           1.73235520181286   -1.75035282850372    1.06447852230082
H           1.36787264858257   -1.47672600084545    1.91026317012313
H           0.95187891327376   -2.05005019770769    0.55686647999193
O           2.33635855882791    0.44267189331805   -0.34036107693323
H           1.79093640463882    0.23275796511590   -1.12808252032228
H           2.33879095316541   -0.39401885440912    0.17859477130080
N           0.50405614892530    1.73545536347973    0.95580615163801
H          -0.10087441346913    2.20375093245279    0.23559708973617
H           1.36662874755044    1.31131238333872    0.45431151511887
H           0.76269211996725    2.37006694374255    1.70259422771713
