    23
        -45.37539402  Gyration_radius:  2.27766674258 Dipole_moment: 4.480
 S          -0.11896522149521    0.53494131920338    1.68755854128525
O           0.66824706736856    1.53678332777097    0.99011247276642
O           0.60395521254033   -0.70234422370072    1.91836170238188
O          -1.40963257240594    0.30883061548623    1.05216100674683
O          -0.42501485605712    1.12713824039269    3.12480735477647
H          -0.82921326551857    1.97248125531230    2.95197847880218
H          -1.53732844172369    0.59078488956409   -0.70361339823444
O           0.18798562355548   -1.48512961772519   -1.81542324685407
H          -0.42478366889875   -2.02438272054671   -0.60174513003014
H           1.00732558152307   -1.05875970125834   -1.48424001169061
O          -1.38942772400718    0.59671938474656   -1.66498127279587
H          -0.81937269561889    1.37451275291000   -1.82294416908901
H          -0.43829271737427   -0.72639143195968   -1.96996419508707
O           2.11650315206733   -0.17515036470234   -0.45803527336511
H           2.52545151465145   -0.74451531753421    0.19690803834085
H           1.64363731829881    0.50301164413798    0.06387238636750
O           0.54354409665916    2.50119557412395   -1.55334049769156
H           0.57897881798329    2.34464511760048   -0.59400569207402
H           1.36634879463167    2.15035794980407   -1.90216671116164
N          -0.87387591806768   -2.18095143704928    0.40227833962294
H          -1.19719149808111   -3.12723722551631    0.56906945173742
H          -1.61621882795852   -1.47440113119979    0.50796848696500
H          -0.16265974211889   -1.84213890991787    1.10538334826252
