    23
        -45.37539377  Gyration_radius:  2.27753391055 Dipole_moment: 4.481
 S          -0.38289632701633    0.52425956145191    1.65128448073410
O           1.03438877919473    0.20663355660157    1.63778685992551
O          -1.23331589676612   -0.65132757250835    1.60926354240980
O          -0.73849269332924    1.49866868383154    0.62934892334423
O          -0.67343640794174    1.21292603814016    3.04828119275271
H          -0.04577922148128    1.92808693550991    3.09617503383260
H           0.24997162721352    1.55611487764840   -0.85292083440929
O           0.83045753453363   -2.00020670753524    0.14972828785056
H           0.97075352427677   -1.22076644516244    0.72296989399649
H           0.21467676449526   -2.55205026295584    0.63618091608463
O           0.74954281420091    1.32720992665827   -1.65556520918881
H           0.15636393560901   -0.14421027672031   -2.13450082349039
H           1.65867025661496    1.15582276501975   -1.34070580816127
O          -0.30528373115869   -1.02587914491107   -2.09515723143018
H           0.18410263431302   -1.52450600428286   -1.40624065311913
H          -1.52102077461768   -0.60043433508429   -1.40232703979369
O           2.93923567546022    0.48311238344686   -0.28913182812454
H           2.38582976781045    0.48342592861826    0.51070213064788
H           3.10602658716589   -0.44156584844179   -0.48634470601870
N          -2.27110684015571   -0.16889359565135   -0.70553354337171
H          -2.06092784927535   -0.57091102276096    0.24817578527143
H          -3.23262677661325   -0.29521235580724   -1.00095891860375
H          -2.01513336209014    0.81970290466655   -0.57051044147500
