    23
        -45.36639247  Gyration_radius:  2.27899349823 Dipole_moment: 6.768
 S           1.57673109934923    1.26090795452502   -0.02494760391255
O           2.56735928402029    2.21526951612340   -0.37907023677449
O           1.96372453537361   -0.14292965442090   -0.15796659775727
O           0.33930429761098    1.44333624388467   -1.02963136800020
O           0.96880551551501    1.48856857715523    1.30602891587411
H          -0.39647677714949    1.74678257102949    1.16275253443258
H           0.06438427148034    0.56134834123857   -1.35721937800683
O           0.38227126145848   -1.28241681201411    1.57545755331077
H           0.51392478097485   -0.81737803554203    2.40381439552032
H           1.01272041136993   -0.84619289630360    0.95037608635530
O           1.25729553477162   -2.49512852793573   -1.15503942190239
H           1.78374878210306   -1.71326934644152   -0.89694852225009
H           1.01728728446975   -2.91660861941663   -0.32485140009600
O          -0.64736993536211   -0.88023599458946   -1.93226679748890
H           0.03589969091992   -1.56500604630514   -1.68487404152168
H          -0.68863531614862   -0.87648591048219   -2.88964437559184
O          -1.96407502910227   -0.68154357066369    0.48044520519144
H          -1.17546016966407   -1.03086434209109    0.96302929280547
H          -1.75274285910128   -0.82144544122664   -0.45547329150296
N          -1.48891046806478    1.84555261041389    0.93153853476707
H          -1.99899079386882    2.29101451563924    1.68645008785382
H          -1.81808051412158    0.83563577647023    0.75776769344460
H          -1.55271489687238    2.38108908102930    0.07027273530699
