    23
        -45.36639242  Gyration_radius:  2.27904379505 Dipole_moment: 6.768
 S          -0.00618850283668   -1.85018720365212    0.80820502910588
O           0.62676626187126   -0.85117694426718    1.66824415067523
O           0.25545612308255   -3.20748043362652    1.13510160868317
O           0.59402411192340   -1.57369274867872   -0.65372979117158
O          -1.44421464642648   -1.53473526193066    0.64904838397412
H          -1.69349492332173   -1.12025885602586   -0.66154607786993
H           1.10312315818967   -0.73628441372447   -0.63432733779481
O           1.91283164016621    0.75310543683582   -0.83828731849623
H           2.78986728509147    0.61286981968869   -1.19804964606108
H           2.04264405573036    1.05237344854183    0.10542013048342
O          -0.98871461226693    1.17661172736936    1.38226270473836
H          -1.86746899821721    0.84877071327599    1.58252821739950
H          -0.40026549031575    0.39459590958641    1.52595906481838
O          -0.67717603300816    1.61367322619050   -1.22096176421808
H           0.27969711696530    1.47832583800424   -1.30006701309417
H          -0.84360244355535    1.61245687049979   -0.24672172844326
O           2.10474513496303    1.34875766191166    1.70098576110779
H           1.74606732727269    0.46451324985488    1.91210883859527
H           1.40958296265997    1.96392116517181    1.95158146456331
N          -1.75266579945662   -0.71535951236028   -1.70511222569222
H          -2.70071281445011   -0.72814779233083   -2.06510754868617
H          -1.13041186536011   -1.28636763183370   -2.27029930283592
H          -1.35988908872844    0.28371574149226   -1.62723560978609
