    23
        -45.38062351  Gyration_radius:  2.2550260486 Dipole_moment: 4.365
 S          -1.65374349849625    0.42468623350850   -0.82320578129858
O          -1.40093129778296    1.19433326219500    0.38867143578532
O          -1.25956589332449   -0.97210946614868   -0.65606241829301
O          -1.11035024582429    1.03713064041325   -2.01024087002346
O          -3.22737247657530    0.39327109758886   -1.02087219520191
H          -3.36187772575519    1.15979789705112   -1.56759632002675
H           0.60905404582321    1.12887416929719   -1.98034332722640
O           1.22508020227884   -1.67270447420518   -0.89152872429238
H           0.26452593851843   -1.41990816069221   -0.87361618865149
H           1.27116789886450   -2.50132343308839   -1.37052608755735
O          -1.23465693226129   -0.89712204895051    1.97864215084400
H          -1.40817642423317   -1.32043828784458    1.11874656844561
H          -1.44755148582907    0.03212060297196    1.77087862845377
O           1.54718874840854    1.02651176924842   -1.72347341844295
H           1.68430245609272    0.07427348990991   -1.63526313662544
H           1.47024219000481    1.70163359322995   -0.16640761534465
O           1.16175515978876    1.80326535770204    0.76760982943135
H           0.18461286831651    1.79726848625214    0.69150031572441
H           1.38506805009893    0.44016817479136    1.34331937266373
N           1.36503624358057   -0.61906908618883    1.62363531288565
H           2.03375417626218   -0.83795567286125    2.35268647248434
H           1.54202688272250   -1.16060762556414    0.76010399807529
H           0.36041110914784   -0.81209651884214    1.92334201816970
