    23
        -45.36642804  Gyration_radius:  2.32300207725 Dipole_moment: 3.565
 S           0.03457411739459    0.55610141401410    1.23864965146309
O           0.19246876387858    1.16021199851959   -0.06677527920103
O           1.21374278579821   -0.09596992359130    1.73068470732459
O          -1.14226470430203   -0.42287538578747    1.18269636575626
O          -0.44228601203729    1.60673090926325    2.23899714822255
H          -1.24695619538828    2.03019311655962    1.75459942717793
H          -0.95862667793855   -1.22088945804276    0.49569962308586
O          -0.33605810983036   -0.30178870861666   -2.32839328505755
H           0.60633900436516   -0.36820525591285   -2.56152689912700
H          -0.33986887358777    0.38150657651109   -1.63897620322906
O          -0.57730798700335   -2.16601623598249   -0.49536757228002
H          -0.57430661909634   -1.59996204542778   -1.31473219128141
H           0.36034509068074   -2.36341578069166   -0.30133295629838
O           2.02135614955112   -2.16009341178019    0.30340098234730
H           1.81717346644780   -1.41154290557125    0.90652354817034
H           2.50493098838368   -2.80555088530394    0.82177816150397
O           2.29236006412748   -0.09911918862419   -1.63696208420839
H           2.45298759455401   -0.88778153601883   -1.10348761486824
H           1.87119412819380    0.53742920535100   -1.04585314987808
N          -2.30164802160957    2.38801030483518    0.67195161362890
H          -1.68926078818842    2.29166354397879   -0.13081454365738
H          -2.75594254537109    3.29144256789746    0.64673784916815
H          -3.00294561899447    1.65992108440336    0.63250271122591
