    23
        -45.36378502  Gyration_radius:  2.31732476893 Dipole_moment: 1.870
 S           0.86064196658587    1.30350516864700    0.53630375724314
O           0.35198934338597    1.15572049459776   -0.81332547859760
O           2.26294148271808    1.54990880055277    0.61278914115959
O           0.52109434113497    0.00231721731429    1.32062456968222
O           0.06598780337975    2.36887792025596    1.26683595054777
H          -0.93492639304809    2.08002714541579    1.31339394486755
H           1.33656362678783   -0.58842398788613    1.21978819410487
O           1.50264417230337   -1.05554667779625   -1.73225330411175
H           1.92063889175877   -0.89044234996159   -2.57950852690767
H           1.03742672035388   -0.22732127848449   -1.48956277360885
O           2.69476970029529   -1.15391715787167    0.69006027322341
H           3.12201139111617   -0.28584811805683    0.69055837035049
H           2.43077379127952   -1.32699050863735   -0.23640206434735
O          -2.23814261086060    0.38045333059854   -0.96139424385497
H          -1.36082273542319    0.74470276225732   -1.16509521481010
H          -2.05636666366263   -0.56945351811443   -0.76861012336840
O          -2.34272636053359    1.66598244473093    1.26253543999492
H          -2.89420503332807    2.43978342695643    1.12479179609863
H          -2.40726528891912    1.11500715479130    0.41488412096777
N          -1.15923103116899   -2.00848343094180   -0.27808025552889
H          -0.35208900481403   -2.07051478096015   -0.88923364210439
H          -1.53697104565851   -2.94038261360465   -0.16338472584025
H          -0.82473703368853   -1.68896144380739    0.62428480484101
