    23
        -45.37452879  Gyration_radius:  2.23571252911 Dipole_moment: 6.175
 S          -0.05386763804318    1.32089292362420    0.74637009887686
O          -0.88550271958594    2.36412163205410    0.19435858747296
O           0.68373380888663    1.64783788247048    1.93946096099841
O           1.03881761280019    1.06377998458466   -0.41744399141392
O          -0.77130907389284    0.04687768434266    0.85294520006599
H          -0.47235686767096   -1.34729299526659    0.00148533051257
H           1.57656913686431    0.28825664445216   -0.11920408736720
O          -2.78671253078691    0.98424120438548   -0.85631868206731
H          -2.89940623673597    0.33169544016652   -0.15780984719790
H          -2.19172882747624    1.66725094788998   -0.44492454547593
O           1.13776887677277   -0.78863164234154    2.71641790839618
H           1.02772231176094    0.18594768919587    2.58974346051573
H           0.24258514784317   -1.13334619693894    2.65246428997707
O           2.28536025495123   -1.09663839042740    0.41349997841174
H           1.89045487453672   -1.08657634700141    1.33706700527367
H           3.23049738236112   -0.98833716263218    0.53343015026663
O          -0.16209071306516   -1.96547125647406   -0.70307743976710
H          -0.53811728880170   -0.86754096838881   -1.81840662765973
H           0.78556040601174   -2.04949729081900   -0.54044838089459
N          -0.73387585829636    0.11010917411753   -2.19254820945644
H          -0.01348911481483    0.70991077532830   -1.74405399066240
H          -1.67802634411873    0.43382380554369   -1.77808692091480
H          -0.71258659952269    0.16858646209259   -3.20492020786165
