    23
        -45.37452883  Gyration_radius:  2.23566321287 Dipole_moment: 6.173
 S          -0.78022327740702   -0.09419979399562    1.29824248429226
O          -0.08735573380240    0.25132999320035    2.51700223020738
O          -2.14384123099720   -0.53718041235486    1.43506629597952
O           0.06259059130529   -1.35520911913000    0.73823012681162
O          -0.61730002497546    0.93358428910167    0.26549550833259
H           0.20403606161097    0.79010404439561   -1.17110195367035
H          -0.32248896018057   -1.56842447378704   -0.14805967696853
O           0.83540321362203    0.47294709589874   -1.86068268235454
H           0.43116881670892   -0.33785159519324   -2.19342497461580
H           1.94420154512088    0.23024831111878   -0.71892666354935
O           1.50727932301946    2.09014027369276    1.68118475351985
H           0.90237741477594    2.55332296820887    1.09291673550082
H           0.91429487510643    1.47167282824344    2.18675111288462
O          -2.87021794281904   -0.10564196958400   -1.02135471347927
H          -2.54849899063234    0.79560269046811   -1.11390007588746
H          -2.77641838034040   -0.29447504345547   -0.05524529598058
O          -0.94373476596567   -1.71570375064833   -1.66406072786445
H          -1.72713375905192   -1.10082178279230   -1.53355729323540
H          -1.31787146719599   -2.58618607936533   -1.81136823243011
N           2.29847199571685    0.05414070399708    0.26969767567186
H           2.13161550880723    0.95667722498522    0.84045103516941
H           3.26350265076662   -0.25609509311266    0.30531485236672
H           1.64014253681432   -0.64798130987853    0.66132947929211
