    23
        -45.36359481  Gyration_radius:  2.30327923062 Dipole_moment: 5.727
 S          -0.77484843843776   -0.77251853246310    0.92753699787083
O          -1.33064886334536   -0.36780342447858    2.17588141406367
O           0.56372538830619   -0.26709816219350    0.67861409559390
O          -1.68310660190546   -0.30976297186330   -0.24373376567372
O          -0.80073912627522   -2.27832284949671    0.77318503276537
H          -0.38193257481305   -2.49658576407965   -0.16241488690004
H          -1.51861009677475    0.65492957892655   -0.48493910947938
O           0.66884126655307    0.08400899393903   -1.98174590729366
H           0.73820615223257    0.10095532457469   -1.01044646096545
H           0.09532948457165    0.81900603095198   -2.20993404753637
O           0.34649721568404   -2.58592420512289   -1.43504871502770
H           0.27775939286351   -1.72036437455975   -1.88232233194298
H           1.26753400421930   -2.60730029241016   -1.09235045650599
O          -1.20673050885813    2.16470812372186   -0.72682615497479
H          -2.03115065487952    2.65114964040353   -0.79424069831798
H          -0.83803841150498    2.34789542992482    0.19489163812969
O           2.61574962130954   -1.84146386511000   -0.22373992198975
H           3.06989511002078   -1.25210589195135   -0.83077263657053
H           2.01706397697315   -1.28054579252662    0.29824237558397
N          -0.37071552255266    2.31173431923165    1.75611026937674
H          -0.55071248036757    3.05156209893170    2.42457665998639
H           0.62730969126752    2.13824289190738    1.74450902101014
H          -0.80067803428844    1.45560372373582    2.10496758879668
