    23
        -45.34470240  Gyration_radius:  2.33631934544 Dipole_moment: 2.007
 S          -0.58299311555141   -0.40943348292011    0.49688729020032
O          -0.74385742102125   -0.80934679817975   -0.86646418420493
O           0.16785767759681    0.77511875113478    0.79133219532003
O           0.28191629700622   -1.58324676138324    1.17546549858650
O          -1.86358034163663   -0.60089367234000    1.33247689016039
H          -1.61697862942227   -0.60053659862325    2.29132359967634
H           1.03946948427006   -1.77044254352601    0.55044149632978
O           2.31853199792258    1.00842159640529   -0.72937421129985
H           3.01693695686368    1.38706939052698   -0.19167160472951
H           1.50292223692961    1.05548197245839   -0.18477672849047
O          -2.11785372565622    1.33551088089988   -0.31292858805755
H          -2.78218650142712    0.80612477845863   -0.75862649716115
H          -1.54446715728298    1.70186976312857   -1.01621656451377
O          -0.75520134347733   -1.08389476127404    3.66471869864932
H          -0.02542412613623   -1.32690754473385    3.07724277523705
H          -1.11865969535262   -1.90269618949061    4.01202673904324
O           1.97312795819896   -1.67397127259235   -0.79071885697934
H           1.23753951367035   -1.74379830451604   -1.40796132291587
H           2.26497380260032   -0.73781257692229   -0.84182204009134
N          -0.37196651580343    1.67478083516259   -2.44575250352872
H           0.53198181922963    1.99474545193952   -2.11932354474613
H          -0.41020137438134    1.83072406260859   -3.44588088933893
H          -0.40188779709748    0.67313301371869   -2.28039764714980
