    23
        -45.34470249  Gyration_radius:  2.33616065364 Dipole_moment: 2.003
 S          -0.31498250198803    0.56876588320278    0.57760555460828
O           1.09308757996339    0.76587675056383    0.42604219219367
O          -0.90142150733304   -0.65334588355234    0.11273756580317
O          -0.99480992295431    1.69138187160380   -0.35198817941692
O          -0.84967962183487    1.08225117452138    1.92859393925547
H          -1.83060194832312    1.19516484127203    1.85645957701203
H          -0.51413785463235    1.65841788088386   -1.22792799007407
O          -3.27442129676952    1.75245560273578    1.17207409704351
H          -2.81520959134527    1.78782328099037    0.32079513564169
H          -3.43954698790074    2.66078360432279    1.43839483788947
O           0.12234234938398   -1.45347678699373   -2.19027395178946
H          -0.58606529381169   -1.84484355277907   -2.70529396079870
H          -0.25234928958625   -1.28734259523244   -1.29811130136191
O           0.59232589690111    1.20638276672641   -2.34722798081342
H           0.46457986364388    0.24076339908492   -2.47111835627599
H           1.34638499482511    1.28783983111737   -1.75417504183350
O           0.55156875907784   -1.03125004238242    2.23508183128666
H           1.07495991305643   -1.58721169063125    1.62311541567490
H           1.18365041191094   -0.48505305590656    2.70666461352771
N           2.23681650316523   -1.96535309875599    0.23487712295577
H           2.21193160093961   -0.95714550622315    0.11504391676056
H           1.69964947154634   -2.36036935569524   -0.52767402640477
H           3.19592846212030   -2.27251532892719    0.12630498911024
