    23
        -45.36860074  Gyration_radius:  2.27466270628 Dipole_moment: 3.558
 S          -1.15607794347470    1.37230734131684   -0.68077082111995
O          -0.76536400118588    1.33907456284429   -2.08968203905519
O          -0.06907214286559    1.75789210872578    0.19504149453503
O          -1.79106271386023    0.13179854135507   -0.27356450579523
O          -2.24641382424626    2.51239084530746   -0.56769562650151
H          -2.81024267805769    2.33018822093102   -1.31279922696221
H          -0.98751967319901   -1.28066729247371   -0.64031926938717
O           1.01277746377621   -0.39577359263985   -2.32257058969369
H           0.29616917675731    0.35265777722791   -2.38082839099371
H           1.66155812227827   -0.04605809090718   -1.57170499266108
O          -0.30108126888614   -1.95016670070016   -0.87329694042166
H           0.48926867892310   -1.17918536446385   -1.83932957186724
H           0.26868897215440   -2.02336254982148   -0.08319787283501
O           1.30261447719395   -1.59363993904875    1.30237953214964
H           1.70118668504223   -2.16984910829351    1.95503158973393
H           0.61674433211558   -1.02860137984514    1.78140342481956
O           2.19201172561610    0.44723872218772   -0.27704823688395
H           1.48682990947432    1.08896923763663   -0.04244479468543
H           2.07810458885810   -0.29700945872444    0.34528255497246
N          -0.54131084290080   -0.03486474903940    2.33051353340465
H          -0.62042567747557    0.30896695134248    3.27949930482716
H          -1.44246263076859   -0.40525864709992    2.05049775092656
H          -0.37492072527337    0.76295254418024    1.71560370349045
