    23
        -45.37169239  Gyration_radius:  2.23322722704 Dipole_moment: 8.179
 S           0.21244932022259    1.36873741835968   -0.14247206881652
O          -1.03411593150600    0.58923689076444   -0.10970357488786
O           1.33617019035136    0.52337317653117    0.26141332134733
O           0.07941007566962    2.54003547040047    0.83688106039922
O           0.42547992460700    1.91320010800802   -1.48448886665540
H          -0.09594229192647    0.84840933586243   -2.34917451926255
H          -0.40406955605904    2.16380780851489    1.65094954792303
O           1.40406393819669   -1.47405672831402   -1.38544562583640
H           1.44800272658571   -0.73321534600061   -0.71918308830277
H           2.31204657435764   -1.65049937546055   -1.63768332227881
O          -0.69404555674403   -1.98434121667671    0.61999528498279
H          -0.90530163193203   -1.05934226541302    0.39171872992575
H           0.02781629214323   -2.23701006823132    0.03586517249021
O           0.64417633235929   -0.63217806933051    2.61289236941492
H           1.12315149890604   -0.20241883863334    1.88245007867824
H           0.14998263581316   -1.35431123188614    2.18539380638374
O          -1.16130389934857    1.27862532657854    2.66184913201773
H          -0.49158079082820    0.56757836607389    2.85309403441774
H          -1.80403952667171    0.87393012419470    2.07024773334528
N          -0.55541176676541   -0.12607515984467   -2.57468671128866
H          -1.23931143348200   -0.16218645667932   -1.79930473988008
H           0.19059897741276   -0.83162754542624   -2.36401248687049
H          -0.96822608136285   -0.21967173339487   -3.49659526724618
