    23
        -45.35287090  Gyration_radius:  2.4748440148 Dipole_moment: 1.766
 S           0.88418670495945   -0.11058541163801    1.96254005350563
O           0.12004239335965    0.14460224581835    3.13605199051875
O           0.50160353941980   -1.21512707676004    1.13592856504556
O           2.37901187183889   -0.38717412290374    2.41720824505267
O           0.99252071128382    1.16902140517399    1.14692309300585
H           1.44497996901439    1.00974378245997    0.19033982845309
H           2.50797003458432    0.09448791919970    3.23134025047373
O           2.02275055451023    0.87067400686747   -1.08005007420521
H           1.29887137156637    0.46064975812740   -1.68718893937886
H           2.17666940028784    1.75365482634459   -1.42504763168271
O          -0.11193301583789   -2.42232800959574   -1.21743554648786
H           0.06835591093648   -2.04230574403996   -0.34107361125217
H           0.58066044784504   -3.06694180359564   -1.37247243848071
O           0.15997610380748   -0.07086403551682   -2.52600483671683
H          -0.63412544358558    0.44927012486636   -2.27076924246364
H           0.00306747740257   -0.97264497925025   -2.17954691727733
O          -2.03462750775932    1.17650933276669   -1.60694473079635
H          -2.01380930825555    0.97274840824661   -0.64014543321994
H          -2.83475062194399    0.77410781590753   -1.94855188053823
N          -1.94890204635717    0.44351894704903    1.00656143137019
H          -2.77260489834507    0.26603334052656    1.56967427815504
H          -1.38319943280700    1.11612988446348    1.51061131109294
H          -1.40671422586137   -0.41318060453244    0.98805222583875
