    23
        -45.37201400  Gyration_radius:  2.27798099242 Dipole_moment: 5.602
 S          -1.46673981819071    0.48285617505292    0.06797537643625
O          -2.41555941916666    0.86307597679384   -0.94637795243166
O          -1.73130788197435    1.02244773479657    1.39369096594823
O          -0.06403969730986    1.17539012737708   -0.32935380486186
O          -1.18123992174372   -0.94268535579679    0.10773918637674
H           0.03426417567148   -1.64941986278001    1.09406591221545
H          -0.08363446607586    1.17529245986792   -1.30399382554034
O          -0.75724863558775    0.92628958630090   -2.90400736743580
H          -0.92405818408253    1.62861628118240   -3.53552207143734
H          -1.56833287552310    0.85112034881497   -2.34375216326098
O           0.39901643911902   -1.50636271918058   -2.01372056479630
H          -0.26678806837525   -1.48006424375796   -1.30196344612161
H           0.10761066182304   -0.85740339082887   -2.66368087818603
O           0.86859196142796   -1.66644838881131    1.61338360514814
H           0.65436864684345   -0.45028440388774    2.37178399524034
H           1.56026777126727   -1.41189532018780    0.95097781125567
O           2.24234013101895   -0.51805568502859   -0.32565826435284
H           1.74765415683089    0.30896733871262   -0.27883593243326
H           1.80658191393809   -1.01370803702644   -1.05236114911431
N           0.35640191778962    0.54168620479335    2.78418938108645
H           1.07014001874578    1.23873645089425    2.59713673867588
H           0.16302332891261    0.48707000541617    3.77895283862226
H          -0.55131213537903    0.79477874725489    2.23933163896814
