    23
        -45.36509042  Gyration_radius:  2.34395773127 Dipole_moment: 5.323
 S          -0.67074883194719    0.26199241463849    1.15854692144028
O          -0.23151479208152    0.31251939025188    2.52114586775571
O          -1.35807930257861   -0.98157188374749    0.80674520947023
O           0.62736647381418    0.28391901394128    0.22922779991612
O          -1.42530194365624    1.43182143165464    0.70915931650460
H          -1.54377811851459    1.51768568869698   -0.66736483116810
H           1.30621001668740   -0.20715701192236    0.78968947466352
O          -1.22165690498776   -1.05717489091127   -1.77050788651158
H          -0.33282736852236   -1.39176904700195   -1.90864254670749
H          -1.38434910883846   -1.13263203399799   -0.79333997035135
O           2.02234641851581   -0.97908558248098    1.94322742761554
H           1.59460962561022   -1.85766984590432    1.85462307261420
H           1.46563139376142   -0.50077419113005    2.58078229096086
O           0.21593901876588   -2.93653393498742    1.64387067414474
H          -0.16894380063412   -3.32808605080616    2.42987362850583
H          -0.43940477634598   -2.27871233552852    1.32459991925678
O          -1.46406278107777    1.47537049678496   -1.74210499496256
H          -0.49901523975496    1.83943875469980   -1.91607090021332
H          -1.43185110927041    0.46761525928027   -1.91174851803871
N           0.98258643486675    2.22613735128345   -1.88670471799947
H           1.13337478208871    3.19068796714725   -1.62096649288006
H           1.58086931442718    2.01092581265966   -2.67362295090726
H           1.24260059967878    1.63305320737715   -1.10041782312143
