    23
        -45.37076719  Gyration_radius:  2.41501633801 Dipole_moment: 5.136
 S           0.54687690634120   -0.89793329154639    0.91416895812858
O          -0.88685812465341   -0.90989340863190    0.69932590267362
O           0.89459262771947    0.01270188607933    2.01706384548682
O           1.29077240674936   -0.55345406958041   -0.28883255130448
O           0.96658010396399   -2.34206832074828    1.35059775302274
H           1.93519598797263   -2.27172165617246    1.47366450727304
H           0.74519265144908    0.92514584547415   -0.89349941435003
O          -1.64860582871311    0.89154530507313   -2.69858650690228
H          -1.31098813825269    0.79346248993407   -3.59059826054167
H          -1.75382750183801   -0.02484282684427   -2.35111239737394
O          -1.79736232201717   -1.56978432748065   -1.68325218631992
H          -2.62709105980189   -2.00940031405531   -1.48917012992646
H          -1.37971998275603   -1.39059667480589   -0.81139426926510
O           3.33411869656071   -1.15477698942210    1.40068336421417
H           3.04420372070302   -0.87866399238681    0.51860283097445
H           2.91938635462688   -0.52351261811963    2.00173801713001
O           0.24354026604624    1.75782750397201   -1.04923643350318
H          -0.45882892023026    1.51921987778985   -1.70488236035893
H          -0.41610911627305    1.90086152419896    0.24219022602645
N          -0.83996032862506    1.76485915503732    1.26271097660316
H          -1.03575619438471    2.63290957844093    1.75000343111954
H          -0.10247348609796    1.15887293598553    1.75044785280015
H          -1.66287872850033    1.16924238781012    1.17936686439557
