    23
        -45.35889018  Gyration_radius:  2.41528271872 Dipole_moment: 3.777
 S          -1.16689729423556   -0.78338206989246   -0.21616424960134
O          -1.26089949609321    0.42229767351884   -1.01161412503661
O          -0.90301545858243   -0.57991384579367    1.16832102032578
O          -0.12002990226457   -1.71425924116279   -0.84735600831252
O          -2.46746744768106   -1.59146758394288   -0.38547150429742
H          -2.71449501844794   -1.49891320959579   -1.34143423682118
H           0.82810761502930   -1.33555665915515   -0.73901206418359
O           2.14726074362256   -0.62960710991276   -0.59737541691780
H           2.68575600843985   -0.72525393905620   -1.38585239634340
H           1.84162594375579    0.34617588341351   -0.56835426552852
O           1.69043751714366   -0.92335511695309    2.25171138019329
H           2.13047631554526   -0.98698518496149    1.39785521115752
H           0.74404290842297   -0.95406688684131    2.05834527817529
O          -2.79077904261093   -0.74784609589458   -2.81795454265063
H          -3.60542633108996   -0.27772742872074   -3.01256819114986
H          -2.16661123174051   -0.09582794644011   -2.44781321248727
O           1.12512617948420    1.70015679781702   -0.53393309522592
H           0.22435104474248    1.46002430397201   -0.79949132974251
H           1.05982153107958    1.90223090735189    0.44143750530464
N           0.75022846419392    1.84618503455380    2.09441876275072
H           1.37779635794695    1.11884635036178    2.43254814255938
H          -0.17779544159022    1.43586535087538    2.10440821145683
H           0.76838602492875    2.61238002642756    2.75534910639051
