    23
        -45.36427765  Gyration_radius:  2.31847919492 Dipole_moment: 3.138
 S          -0.36773886505272   -0.68953347561931    1.30516308410128
O          -0.18182074591905   -1.33682029824971    0.02082883955119
O          -1.66849166607239   -0.88463326802387    1.89448606858606
O           0.04583040391918    0.71160979698188    1.25856976037129
O           0.65831996081669   -1.39753751472659    2.31406805254816
H           0.09631291073462   -1.62582339724427    3.04818857869125
H           0.20474466014557    1.41691081336577   -0.02055807978632
O           1.43318534055194   -0.28473464443484   -1.76810741254550
H           0.79493902066632   -0.86719578049340   -1.30006698049499
H           2.19363048717905   -0.26448623826638   -1.13429636613108
O          -2.19987317105040    1.57644253836620   -1.61173571202424
H          -2.48311818198274    0.69756059740712   -1.24187686393525
H          -2.76464451587840    2.23405855904004   -1.20209886646860
O           0.26815254497145    1.75938261505858   -0.99656440258387
H          -0.69895069478640    1.74267503214012   -1.33302871078308
H           0.79925493551026    0.94217329110798   -1.47388730541844
O          -2.79894988666072   -0.72632387731096   -0.49752397088004
H          -2.59887052852821   -0.73727309278310    0.45920412664658
H          -2.16266970833471   -1.34772354673282   -0.86726207501673
N           2.82073288892703   -0.23218835217134    0.50989313608419
H           2.05423683026771   -0.68246687131391    0.99914512358670
H           2.88134811441748    0.71113036010744    0.87492038508123
H           3.67443986606555   -0.71520319617247    0.76253958079487
