    23
        -45.36764816  Gyration_radius:  2.35999484469 Dipole_moment: 4.591
 S          -0.29358060978224    0.82708615277365   -1.71043612273899
O          -0.87634849256713   -0.50775358985980   -1.88816563809175
O           1.08761518209999    0.74108755480408   -1.29413941626053
O          -1.12284321704512    1.65615414958554   -0.85843224518843
O          -0.30148083501894    1.51629412205687   -3.13707006106294
H          -1.17745032253829    1.88708819065398   -3.18936229178798
H          -0.82207710235463    1.27297739646806    0.75731792787372
O           2.00774976998810    0.86889133111345    2.23927600341606
H           2.25984753235282    0.25047839516243    1.53034473948848
H           2.28360145678393    0.47677009424297    3.06910507408907
O          -0.62959731636699    0.78363277336787    1.58659307881413
H           0.27641401192480    1.03353508495999    1.85558255850369
H          -0.52292611340372   -0.62753745795361    1.03827017616167
O           2.33345808543858   -0.96794923608011    0.19279663593358
H           1.89220778750478   -0.30657450513355   -0.40505592982675
H           3.17688717483111   -1.15945964749507   -0.22011087774136
O          -2.98733993046450   -0.61693427956629   -0.11464631253948
H          -2.98965438610850    0.27095514499001    0.25024395919468
H          -2.44097724521751   -0.56211907585300   -0.91197994037999
N          -0.32970648651831   -1.53218256846228    0.46227718994558
H          -0.93869249211242   -2.28720611324763    0.76208139232511
H           0.67072146652368   -1.75605125993659    0.52285190721644
H          -0.55582793792583   -1.26118267657313   -0.53734180734434
