    23
        -45.37651759  Gyration_radius:  2.29573331531 Dipole_moment: 5.184
 S           0.04087233589428   -1.55089308919427   -1.20190709791783
O           1.31888689076394   -1.16923545555981   -0.62653757384905
O          -0.74189861780407   -0.36673348454495   -1.54629568172408
O          -0.68760315678219   -2.51052892140577   -0.40362106510953
O           0.34509103578455   -2.29339526711285   -2.57156402793348
H           0.03370820591425   -3.16421214954503   -2.35086507399787
H          -0.94884808906432   -1.87950166732461    1.16533321437423
O          -1.01303049019298   -1.29324703648309    1.94670173180529
H          -1.86374110339490   -0.03026069759810    1.19268749202876
H          -0.10981076653924   -1.01491720354205    2.14071374327162
O          -2.02130647365771    0.69635354063882    0.54084810959717
H          -0.82425172816951    1.57477771130510    0.75403632605371
H          -1.77064545135873    0.29537009061159   -0.31725424988803
O           1.57756596537798   -0.07392753090589    1.66866288887748
H           1.49341983730848   -0.52825469006008    0.78043474851634
H           2.49938871148884   -0.16426439726745    1.91481019178671
O           0.65332596102046    1.81912112422081   -1.82600031169305
H           0.18954812251582    2.29027719736638   -2.52053823354463
H           0.23775437367976    0.92125767890674   -1.79247819756748
N           0.16639225948640    2.03882767067638    0.78019272049019
H           0.45604175493754    2.12768310834888   -0.22652224311776
H           0.80099950546338    1.34611439987343    1.23637306191467
H           0.16814092731594    2.92958906861185    1.26278953761582
