    23
        -45.37582049  Gyration_radius:  2.37273964714 Dipole_moment: 3.950
 S          -0.69946750097690    0.45433622793511   -0.50283454787444
O          -0.36071550395450   -0.72470611102876   -1.32348810863634
O           0.14859913202969    1.57558483464845   -0.85104643637466
O          -0.59119939338256    0.12584960585550    0.91934482539357
O          -2.16741619250975    0.83163370481930   -0.80384066242023
H          -2.63799015108432   -0.05177347422044   -0.91259867701039
H           1.03242724739598   -0.07278077268084    1.38670578764995
O           2.01445568327106   -0.01863207040835    1.37018520771219
H           2.19503927818587    0.94556851740016    1.39775610945136
H           2.24168708810504   -0.27576714208375   -0.08669545568123
O           1.97625433331637    2.58157420103878    0.77465804823746
H           1.58402096528199    3.25861733589251    1.32778094123574
H           1.27353862178250    2.31410297384182    0.14081835843348
O          -2.25219803047535   -1.82631994059561    1.58430114465738
H          -1.57481146253455   -1.13560122655075    1.41440944177032
H          -2.80860619027693   -1.48529602824125    2.28648144531814
O          -2.91054965406320   -1.61054385985502   -1.00233371531628
H          -2.02616297480458   -1.74837375122993   -1.37103129665792
H          -2.83823895878864   -1.87786581403806   -0.06042781527708
N           2.16614842378475   -0.32129822900185   -1.18236265954536
H           2.82867313931928   -0.96263760584594   -1.60658202463750
H           2.26984218445630    0.62634398246419   -1.54161201058919
H           1.13666992589133   -0.60201535812074   -1.35758788987185
