    23
        -45.37525952  Gyration_radius:  2.28147329953 Dipole_moment: 6.250
 S          -0.34324354452721    1.68886352055176    0.68625834684268
O           0.77935513997082    2.34375824044366    0.07509079288798
O           0.00663374785520    0.63140849639974    1.62682219833094
O          -1.33992086236991    1.21264458076462   -0.27749245411403
O          -1.08537381764572    2.78990452626657    1.56150468790335
H          -0.87659587669361    3.59573216288499    1.10000184560221
H          -1.86344381921498   -0.17001366362530    0.25530870837706
O          -0.27258638216352   -0.34781297326577   -2.29783847462493
H           0.65543749377819   -0.02585020002014   -2.26540637221384
H          -0.76856754451442    0.30181688087744   -1.77604137300026
O          -0.14859237717672   -2.36945463673808   -0.65258362082604
H           0.69133812652333   -2.15293227090296   -0.21505617927786
H          -0.19866309469256   -1.73424804276470   -1.42353164272057
O           2.10684743472954    0.59018768178116   -1.51742620098477
H           2.27896228664678   -0.07106207611249   -0.83235025524904
H           1.74514758703691    1.35889028765947   -1.04242103082334
O           1.83521571700029   -1.05527528270417    0.75646530713705
H           2.52672731373577   -1.15373088961967    1.41238888066068
H           1.20503700794086   -0.38820572847912    1.11353269261488
N          -1.80268740989114   -1.07055547197021    0.81421919632389
H          -1.17006091256104   -1.74883842050642    0.21318089381837
H          -2.70661632645762   -1.46002711549901    1.05632738317528
H          -1.25434989730619   -0.76519958541962    1.62904667017318
