    23
        -45.35284041  Gyration_radius:  2.3439728057 Dipole_moment: 3.218
 S           0.33759620300704    1.18167794817446    1.52011477778304
O          -1.04934483955014    0.79922465829125    1.46605096234067
O           0.91692607950030    1.68455125405304    0.32613815817394
O           1.15240297065011    0.02862775790300    2.09817140717163
O           0.47546744960755    2.29923042798232    2.61710173984169
H          -0.10191592663060    2.06318060514140    3.33976979581874
H           0.54037013395260   -0.81960792176212    2.13156735548942
O           1.97971594580644   -0.45091678016414   -1.26743978358883
H           1.81761789368674    0.29268965342914   -0.67483021636514
H           1.39115114437921   -1.16143907022544   -0.97888308575921
O          -0.16400962599375   -2.20355243925791   -0.55848954677652
H          -0.37468521993577   -2.96180597699015   -1.10492328330211
H          -0.81081317945121   -1.47509236138604   -0.81585224188434
O          -0.50810525212701   -1.82507638085333    2.01272671987602
H          -1.26285954985948   -1.22618918921973    1.93863271181670
H          -0.34475611875550   -2.15533762257227    1.09210271289800
O          -1.74607739632655   -0.21748424691379   -1.03015288768243
H          -1.68732613966778    0.25779161120304   -0.18948408541233
H          -1.23613723150413    0.33713243796657   -1.67928053193236
N          -0.07053294796741    1.25763190251550   -2.50305886543166
H           0.18784584553463    1.92209596018579   -1.78079544377261
H          -0.15815333112844    1.75707675357525   -3.37894354193982
H           0.71562307274976    0.61559100893327   -2.58024283736512
