    23
        -45.36765374  Gyration_radius:  2.30452811062 Dipole_moment: 4.068
 S          -1.19301543292734   -0.62731640376464   -0.26925051505259
O          -1.15371039087066    0.58682311519808   -1.07591320477095
O          -0.82228809813887   -0.37759156013489    1.11162769843857
O          -0.33583122498556   -1.65903450369053   -0.87428165597083
O          -2.64828482450686   -1.17491661966059   -0.26704962657794
H          -2.82588857380612   -1.30061521007765   -1.22320594391858
H           1.08998075487837   -1.37565953465380   -0.70643509815222
O           1.53735991485576   -1.03297757087931    2.06366151462784
H           0.58412232816121   -0.90896187461660    1.84242742001920
H           1.79839543353148   -0.26507380281237    2.57643114426747
O           1.32828567405445    1.39650900708479   -0.75512062579945
H           1.21379736355118    1.79757505387321    0.14295441895289
H           0.40175746140198    1.21682464656679   -1.04104316823273
O           2.01479443781748   -0.96622789951154   -0.44272638246646
H           2.02339127548777   -1.07148990923642    0.57040202430290
H           1.84705557418195    0.09159931248805   -0.62213739231931
O          -2.21850654791396   -1.13839141067119   -2.85793638631013
H          -1.46708911423188   -1.73437973997954   -2.76206817492906
H          -1.88061083173366   -0.26206339512912   -2.61647926726432
N           0.40014768995312    2.17448274594692    1.63395072364766
H          -0.17496412245842    2.96949428836716    1.38186043558567
H           0.68549123333227    2.30921209585113    2.59653285222356
H          -0.20438997962108    1.35217916946535    1.59379920967458
