    23
        -45.37013287  Gyration_radius:  2.33748264105 Dipole_moment: 3.821
 S           0.58519565404522    0.80172651524946   -0.18121284250494
O           1.80541774192648    1.03489229786123    0.57233518494348
O          -0.60961390216327    1.25928646558700    0.52069931999572
O           0.44418382238823   -0.58965541181522   -0.59626016747384
O           0.65182628676385    1.66017875872204   -1.49246306839861
H           1.58082440422852    1.57066193408267   -1.79207989744368
H           0.00402572252548   -1.68804217172949    0.68814488213152
O          -0.48850994399820   -1.92806104541113    1.50092686233380
H          -0.06047712654239   -1.38100002831105    2.19665391249510
H          -1.72803461603886   -1.19963748521968    1.15650700441621
O           0.66785328239899    0.08937722471452    2.81123835125518
H           0.01878325736832    0.78359451536020    2.94941132568772
H           1.23788551236235    0.41775659197072    2.09137142041192
O           3.26261613509398    1.29578930238605   -1.59093248421515
H           3.83542792785582    2.06376620412231   -1.52818690174432
H           2.98643079205715    1.08189701907280   -0.67638757534673
O          -2.38518108998519   -0.49453253874441    0.72761908532262
H          -1.77118098787798    0.33223694291540    0.69469423316053
H          -2.41088137872115   -0.77395296986730   -0.30965875671924
N          -2.03987278923131   -1.05198600684935   -1.71021592249853
H          -2.21233557380637   -1.97912112350446   -2.07623279394123
H          -1.02947918870822   -0.93545729456210   -1.56424067943135
H          -2.34490396213775   -0.36971766577160   -2.39173048247088
