    23
        -45.37013293  Gyration_radius:  2.33737722708 Dipole_moment: 3.820
 S           0.92410487444113    0.19658169521411    0.35054961966744
O           1.27413813669596   -0.02968952587944    1.74247608123385
O           0.23653579241359    1.46620741799002    0.13907836764857
O           0.16206486386362   -0.90929738598326   -0.21915876581480
O           2.25419674639487    0.30097407204709   -0.47459489692288
H           2.82902240699328   -0.39642012873244   -0.09467860240128
H          -1.50048770089634   -0.99246364161423    0.30492370569333
O          -2.35937274302852   -0.58998838310465    0.55275097309351
H          -2.30694206096257    0.51243988438592   -0.43024103034939
H          -2.16985443361374   -0.16477233080119    1.41855760371992
O           3.38350046001488   -1.46074117082131    1.13076432571629
H           4.14523301104022   -1.18525329797286    1.64617118563385
H           2.59466215474446   -1.12219085232004    1.60148795866341
O          -1.17010913572799    0.74376618533188    2.53607261278462
H          -0.26572101096634    0.39863510790131    2.41815689737630
H          -1.11363262654121    1.67257859109334    2.29859643611181
O          -1.93087952147140    1.24079150558644   -1.09467840456597
H          -1.55062266383155    0.66035534455849   -1.91476478284996
H          -1.05726501157317    1.49630080272838   -0.61176097370648
N          -0.76616896568017   -0.27701692346868   -2.74195993216322
H          -0.08704887026121    0.14411099205995   -3.36199590770865
H          -1.26052084394659   -1.00306740530242   -3.24369648817892
H          -0.26483285810079   -0.70184055293815   -1.95205599259030
