    23
        -45.36607924  Gyration_radius:  2.39002702507 Dipole_moment: 2.135
 S          -0.93977241700812    0.17165460996878    0.34358353016656
O          -0.84470134653227   -1.17828223670789   -0.16451641508583
O          -1.63282603439931    1.08141430218926   -0.52252009000394
O           0.47060378909212    0.69817385763122    0.64040553260956
O          -1.61175508365401    0.16921615710041    1.71064621753374
H          -1.15552964189261   -0.52378972285989    2.31587458925130
H           0.96417788974854    0.97121494414911   -0.25680965657547
O          -0.43938608441867    3.18637939695829   -1.68585805911754
H          -1.01399338523357    2.49248300383502   -1.30804593913255
H          -0.52181217419319    3.94767719255917   -1.10958243308852
O          -0.24438860726182   -0.39543696215552   -2.65970654507747
H          -0.50167271111262   -0.86219605702030   -1.84468774769220
H          -0.99925000736519    0.15150064030894   -2.89222091542833
O          -0.47838258067242   -1.64123930543002    3.07243637487723
H           0.33288366475998   -1.83416558132331    2.51010564475401
H          -1.04767435491070   -2.41080017036894    2.99845670211911
O           1.46372717722965    1.31852060397818   -1.55643886911021
H           1.02033695486568    0.64668915138665   -2.12612180589135
H           0.97331611529441    2.15201109444767   -1.72856843159725
N           1.42939214411953   -2.05766547009532    1.30671136904288
H           2.04835518916733   -1.25702204215231    1.28023718152671
H           0.75215403402098   -1.93760114051061    0.55585947292277
H           1.97619746050712   -2.88873625606626    1.12076026293673
