    23
        -45.36794675  Gyration_radius:  2.24559480984 Dipole_moment: 4.596
 S           0.69987956634619   -0.14313997483178    1.18345035644119
O           1.99412832048767   -0.57590050684159    1.63873930362892
O          -0.17285768098997   -1.22437570947909    0.75199031925770
O           0.73817564070396    0.92033821422007    0.18113419545971
O           0.00090117285857    0.51978259329530    2.45715867001685
H           0.43186038824520    0.07160564392930    3.17815222943691
H           0.11247884154584    0.59809147067787   -1.20360243512316
O           2.95000596684040   -0.77225582958070   -0.82355023211422
H           3.02745873473993    0.15066551390414   -1.07419570422789
H           2.75881043905163   -0.77075284245782    0.13499247785326
O           0.76029822260377   -2.03538335676915   -1.63793102366511
H           1.69353152827922   -1.75275981334861   -1.51262538096596
H           0.40017071472577   -2.09358766249095   -0.73276002434790
O          -0.38396399827793    0.15981674799646   -1.97514777302201
H          -1.33959778139224   -0.05028340092977   -1.51591016654127
H           0.07929784215399   -0.79133087212002   -2.02606797798949
O          -2.34418836569949   -0.35160128555407   -0.54532328165768
H          -1.76213060947784   -0.87285605401772    0.04413079131660
H          -2.43519682680321    0.52581385831017   -0.08343960293320
N          -1.93987451801418    1.93235836164507    0.74273446536335
H          -0.93202272051909    1.80782600817739    0.67545496048081
H          -2.17327367720158    1.88379904949352    1.72652851921309
H          -2.16389120024852    2.86412983679839    0.41608730411597
