    23
        -45.37078333  Gyration_radius:  2.26775408329 Dipole_moment: 2.645
 S          -1.27686766154938    1.33534756713134    0.04615569697164
O           0.03154376472108    1.70284728769830    0.58528703875535
O          -1.63986217620731   -0.02361916365944    0.40699692280765
O          -1.37655770199400    1.60565075179130   -1.37141343531211
O          -2.33181144912635    2.27378285929163    0.75883802550082
H          -2.27138701911208    3.06450259836270    0.23285909807715
H          -0.26202830178910    0.79322085929620   -2.31779779606474
O           0.45945601878082    0.17985441360295   -2.59015641084742
H           1.48649369202237    0.48149171521705   -1.54129089452842
H           0.13781213987049   -0.70487628754032   -2.34709169622041
O          -0.53733784678417   -1.87518028601798   -1.06805137394227
H          -1.16557148040072   -2.58334461953286   -1.21656466520776
H          -1.00720879181966   -1.20177479263074   -0.51579767625417
O           1.73396298605063   -1.59179750012665    0.44512907390989
H           1.01966627543315   -1.94518507133076   -0.11467386478664
H           1.28040348428740   -1.30915822722967    1.29659564255708
O           1.96330325922437    0.64094291490996   -0.62646810796146
H           1.26047352373318    1.16262541360915   -0.08853225666037
H           1.99141670412643   -0.33274156201628   -0.15703876040004
N           0.31057704263137   -0.57819536503303    2.41439231106789
H           0.01445364936102   -1.02770589649790    3.27144865472654
H          -0.51662641382693   -0.39501840302187    1.84644860309209
H           0.69569631233316    0.32833078374350    2.65072589069334
