    23
        -45.37208323  Gyration_radius:  2.39530093142 Dipole_moment: 2.642
 S          -1.80565805611355   -0.02496978665047    1.11358082138527
O          -1.15288358800134    1.16073562828994    0.55733556935356
O          -1.29557935366468   -0.42875184208702    2.39166559924651
O          -1.85426526272668   -1.10017238004569    0.12213212312876
O          -3.32194603915475    0.41789044109562    1.34340813138927
H          -3.59666300040185   -0.06057158285751    2.12060477497387
H          -0.17589435947660   -1.76704539124941    0.27534174268944
O           1.17542132802579    0.59018866062282    1.67622577108259
H           0.35123500071738    0.94863832372047    1.28711948394723
H           0.90182057300715    0.28053727945424    2.54517157234493
O           0.79381154226268   -1.77114249284137    0.24285878278481
H           1.07404932581902   -1.07196476197582    0.85708522259911
H           1.32673982221920   -1.22478239199897   -1.29136489524320
O           1.45976557453206   -0.58756244435793   -2.03456125295739
H           0.06885262743626   -0.03938716505675   -2.07013264126776
H           2.02933811745856    0.10992482911219   -1.64854956832734
O           2.81734730493159    1.16249748569852   -0.48754713010175
H           3.72153714230338    0.95005315149617   -0.25042009368604
H           2.29336526689781    1.06961087614072    0.32444112166361
N          -0.95975140696931    0.28495936117162   -1.87628150174780
H          -1.44628765107325   -0.48871799679294   -1.35750224857051
H          -1.45376377799531    0.57742221637381   -2.71144070318678
H          -0.95059112968982    1.01260999307321   -1.12917069146839
