    23
        -45.37093085  Gyration_radius:  2.33549968033 Dipole_moment: 6.812
 S           0.29417927545104    0.69327041810891    0.93841667461941
O           0.38706638453219    0.48895562177507    2.37808947962894
O          -1.07157064438098    0.44777290591052    0.45618463364713
O           1.22617445668339   -0.19688910017291    0.22814165937571
O           0.66750449296907    2.14871698720248    0.64755912138864
H           0.67961663017455    2.34242804123918   -0.36000169966545
H           1.23750613142305   -1.59327096947844    1.12949532081067
O           0.62825666071318    2.51105491206748   -1.86896854958356
H          -0.27821921277350    2.24259124005542   -2.09568122150725
H           1.17060236187226    1.75821504971143   -2.19905328825535
O          -1.69760326511015   -1.96752831254404    1.26802978627174
H          -1.52793714283850   -1.06748444057020    0.89179739268011
H          -2.42304072141599   -1.85416525662843    1.88507797807942
O           1.35189263602561    0.02015100831373   -2.44777633368095
H           1.41470274167655   -0.15388763255415   -1.48929471276359
H           0.42873101025805   -0.13384734734491   -2.67781538607540
O          -1.48386577852546    0.79077098242852   -2.11783469731124
H          -1.35719299707560    0.63061590567196   -1.15440045852069
H          -2.43077783254908    0.81232155010790   -2.26099892508380
N           0.82821151358086   -1.96690836027173    2.02471821719196
H           1.39833068572111   -2.65465319021677    2.50424864802200
H          -0.15083334348893   -2.27963963597062    1.80295950738450
H           0.70826595708953   -1.01859037683028    2.51710684333760
