    23
        -45.36691012  Gyration_radius:  2.34067824651 Dipole_moment: 4.574
 S           0.81119474673786   -0.74536723443776   -0.06730121281492
O           0.91492213579018   -0.02234355910009    1.19463920537000
O           2.10647460755001   -1.11855146633397   -0.58483683889452
O           0.05790532799531    0.08853239573007   -1.03715797815133
O          -0.03709152964215   -2.01127781455564    0.21590358818741
H          -0.72043495520358   -2.20572293742990   -0.49435809913990
H           0.53198038100545    1.42105655507754   -0.67854618198104
O           3.31540786479736    1.06364183965466    0.13312962522032
H           3.40351022718443    0.88811708618544    1.07416248433218
H           2.99970483294917    0.19848975022953   -0.24121514376710
O          -2.04509668887906   -2.46103125393499   -1.33778365448597
H          -2.62625588753317   -3.06688595090434   -0.87353624171493
H          -2.42387415827484   -1.55098488941217   -1.21572433217129
O          -2.60982147439088    0.03635579370828   -0.71892159738176
H          -2.51722681444941    0.09594189101508    0.25002548984585
H          -1.70726628638214    0.20795751051628   -1.04117128332663
O          -1.63652233937590    0.06657688826924    1.84420503121304
H          -0.67324167991432    0.05219617182439    1.65080215814868
H          -1.79681758574616   -0.71103485165729    2.38129032133550
N           1.03116163256453    2.28960682576357   -0.23033788109191
H           0.99785801178970    3.11339244086450   -0.82287468919732
H           2.03224077905207    1.92039433957336   -0.07327697629908
H           0.59128885251099    2.45094047051733    0.67288419617346
