    23
        -45.36021779  Gyration_radius:  2.30487401261 Dipole_moment: 5.311
 S          -1.44764164994904    0.00513441199222   -1.49740790056213
O          -2.49868289218285   -0.93686241021640   -1.64638108800527
O          -0.16310797442405   -0.59348477434121   -1.15286250942701
O          -1.78242142666053    1.08527355777109   -0.46979868072017
O          -1.26379460529419    0.84367824909636   -2.78281138067755
H          -0.50986511605054    1.44008713561536   -2.56843634631110
H          -1.60670357795691    0.82162913692026    0.54372994950354
O          -1.18482437154606    0.39044156022588    1.83844952711517
H          -1.14326936313848   -0.58151726982021    1.70761068895808
H          -0.26165783594683    0.73418989916466    1.80753448979654
O           1.29788022326123    1.29493168249045    1.41718891503098
H           1.83515149044314    1.60390433471251    2.14802948318429
H           1.69650979015279    0.43728964402080    1.10859534121927
O           0.85822272852975    1.84966714481136   -1.56626409967711
H           0.76556124618153    2.30006551504735   -0.72004567063912
H           0.88408348142159    0.90668826947289   -1.34456203382874
O          -1.18766258669896   -2.10030570609757    0.82391527697494
H          -2.06510613288756   -2.34795550407256    0.52183052991822
H          -0.74489638145759   -1.73598976865309    0.03877557868238
N           2.13100529422504   -1.10837199917916    0.57571272763690
H           3.04759837704864   -1.31587457712325    0.19937159160643
H           1.46577009521687   -1.13629100312039   -0.19255727315529
H           1.87785118771025   -1.85632751871313    1.21038291338506
