    23
        -45.36427706  Gyration_radius:  2.28827952877 Dipole_moment: 3.480
 S           1.18825434008440   -0.28444055599681    1.01506011861081
O           1.49296229893707    0.43091643889731    2.21451121257545
O           1.26073652510159    0.49703219717854   -0.19758756957861
O          -0.25731158454807   -0.87207528251899    1.11947572872223
O           2.03084098669708   -1.53662516527142    0.88665192951424
H           1.94469631798484   -1.83427126535643   -0.11220865296768
H          -0.90526459138259   -0.10752200113164    1.18767852053260
O           1.63936255976437   -1.95887960443926   -1.54146864795737
H           1.68754885637217   -1.02874573852520   -1.78865065184950
H           0.66694043541332   -2.19757916444115   -1.56873558375626
O           0.45275156276593    2.71676558953275    1.30833597622748
H           0.94521781663749    2.09602697955659    1.87559054618004
H           0.83934364866704    2.59237330268232    0.43518630271864
O          -0.94963123158552   -2.22655342539288   -1.33904655979984
H          -1.20102801777275   -1.29892763559634   -1.57689277442921
H          -1.03082030791473   -2.26822536325528   -0.38154061333873
O          -1.72224972822266    1.24314723980190    1.33064143074233
H          -2.11193281621670    1.30551464028492    2.20564750745951
H          -0.99498089042463    1.92156720317994    1.30220099728593
N          -1.27746394208847    0.43286514522940   -1.63812602007096
H          -1.39929754326419    0.94933360554530   -2.49985127234700
H          -0.35140276312606    0.64066530655043   -1.27109689578878
H          -1.94727193186057    0.78763754358993   -0.96577503869590
