    23
        -45.37084200  Gyration_radius:  2.40371619009 Dipole_moment: 6.809
 S          -0.04151053066437   -0.20612468418406   -2.03138476629434
O           1.21334298248637   -0.25048811263924   -1.32547409431189
O          -0.65996699595775    1.11303317212304   -2.03771383783684
O          -0.98858848341137   -1.21788397559600   -1.55299617074121
O           0.25661798795909   -0.56157658998853   -3.54312795398085
H          -0.58432242616391   -0.38224624239270   -3.95056454148941
H          -1.37484332455729   -0.91365983915120   -0.13041720846542
O           2.26947463956018   -0.80831038713562    1.13864682140622
H           2.02374284114012   -0.89447765486709    0.20259296310184
H           2.32747850616064    0.15608854059108    1.25691428103106
O          -1.11918292937801    2.01957560386993    0.32450431564961
H          -0.92435966514628    1.73885786761228   -0.61395993738218
H          -1.64374675838630    2.81900036507909    0.25874961363021
O           0.20986514636507   -1.71558754955953    2.42208810170902
H           0.29210920231037   -2.66869663879462    2.36289574444566
H           1.05081870895022   -1.34952223534449    2.01351515312704
O           1.72585110538434    1.79362493208123    0.47741572236657
H           1.66678598494102    1.26664361764790   -0.33517339085898
H           0.82140218029643    2.07552173878917    0.65852940464206
N          -1.59680297557208   -0.58603696180830    0.87107865101383
H          -1.47528652946233    0.44719423506859    0.87319606557687
H          -0.90101637688031   -1.04064988265598    1.53795486766315
H          -2.54786228997157   -0.83427930872651    1.12273018600180
