    23
        -45.37100548  Gyration_radius:  2.40253281753 Dipole_moment: 5.988
 S          -0.13312613595379    1.85523685639857   -1.04055415943523
O          -0.77819052456189    2.37414495116580    0.16455465711137
O          -0.54136380001233    0.47943266821710   -1.29141571424622
O           1.29896898817306    2.04491552132802   -1.02368468791284
O          -0.68178399025350    2.70559830510660   -2.26073080465110
H          -0.04294846655169    3.40880083123759   -2.32609575011256
H           2.08060905409139    0.90096393242596   -0.00015507102904
O           2.16096579854286    0.12375779010284    0.59264469109128
H           1.99175049701090   -0.64010375381331   -0.01728191736729
H           0.95887618468628    0.32524779142341    1.42819165808487
O          -1.83433117429442   -0.88909192571044    0.49955824698346
H          -2.77304006598170   -0.75425496268296    0.36132790380194
H          -1.38355902264236   -0.38614833432554   -0.23185880723492
O          -0.55837854333090   -3.28389681476306   -0.01084734589309
H          -0.32244451207346   -3.68279873467783    0.82758761221374
H          -1.11744550403108   -2.51154117975732    0.18500204177791
O           1.27585982178033   -1.58196242607464   -1.20199708593182
H           0.65385290871875   -0.89403383115232   -1.48971394889442
H           0.72381882049135   -2.32557725951132   -0.90487998675912
N          -0.00846974785681    0.60276732005752    1.87697556420596
H           0.07142131331218    0.82401158800105    2.86315338256539
H          -0.70369159650766   -0.13710981793629    1.69837290924401
H          -0.33735029273924    1.44164147494098    1.30184660238184
