    23
        -45.35854950  Gyration_radius:  2.49405473173 Dipole_moment: 1.764
 S           0.54685287637305   -1.22097859741310   -0.70194390475253
O          -0.04991601648245   -1.48152552656957    0.57168570370830
O           1.33412988328522   -0.01071517938871   -0.77193438326681
O          -0.50097553312867   -1.22108612719974   -1.81065528394767
O           1.44462588221930   -2.41703718211691   -1.08664979935621
H           2.01749379178676   -2.09374113127646   -1.82858330462688
H          -1.22001900014286   -0.46919815432422   -1.67439081740178
O           2.84755752956206   -0.96180608160933   -2.71777977228143
H           2.39302903000797   -0.28981176407944   -2.17597606387194
H           3.78633743281312   -0.88249517549390   -2.53044332565190
O          -2.25329978910370    0.50120475793095   -1.37199655821059
H          -3.08242182818740    0.19138342593431   -1.74437443387864
H          -2.33756719848491    0.39473761265362   -0.36034173151853
O          -2.28954386854137    0.03898607101593    1.13407088829623
H          -1.59230032804814   -0.63438695003530    1.13092400493900
H          -1.89058984632845    0.82612618046406    1.59774813810472
O           1.43112337784115    0.50070723844139    1.92359623415280
H           1.54373230510746    0.54854770026989    0.96337819263312
H           0.99826053619326   -0.34726024463802    2.06561972312173
N          -0.97151494006181    2.08312186859206    2.25381560039802
H          -1.17485715185572    2.35745413142679    3.20636803063990
H          -0.94168880948393    2.92150357131619    1.68784484903066
H          -0.03844835558350    1.66626955627466    2.24001797364778
