    23
        -45.35854958  Gyration_radius:  2.49374572007 Dipole_moment: 1.759
 S          -0.52259744319345    0.77853180723950   -1.18440076026724
O           0.72403698664158    0.11472015656510   -1.41117360903581
O          -0.66458274863282    1.38234223501538    0.12120386186798
O          -1.69949419174723   -0.15385539315474   -1.45365688043952
O          -0.70772728326552    1.87323785006785   -2.25769316902664
H          -1.43596991186140    2.45637661357207   -1.92174026345280
H          -1.70075169102111   -0.98381693875313   -0.81163608208167
O           0.94752504885977   -2.36296217507402   -0.20364717314538
H           1.07016906154583   -1.57855511252577   -0.75966345170311
H           1.35209816364513   -2.12536043968943    0.67593134381685
O          -1.58460563259027   -2.17006840407022    0.01296298762499
H          -1.98068244100103   -2.90832426964638   -0.45637888877173
H          -0.57642171821326   -2.32828277921913   -0.00594377833428
O          -2.37815461055938    3.18761032144537   -0.76485838046688
H          -1.94733307907911    2.59254519388802   -0.12301033941155
H          -2.13115529569516    4.08393511303476   -0.52343161734716
O           1.96019511146307    1.16609013561281    0.89566235862242
H           1.01106283427323    1.35407472164810    0.86744877690928
H           2.16212642538077    0.85099317706917    0.00877942437862
N           1.93748589649390   -1.46073588522970    2.11482027576796
H           2.03830536425441   -0.47967796082517    1.84659960019226
H           2.83744995656268   -1.78673208252545    2.44318244624770
H           1.28902118770925   -1.50208587466143    2.89064333826759
