    23
        -45.37363661  Gyration_radius:  2.27562905364 Dipole_moment: 5.471
 S          -0.34342290460034   -0.33565235541287   -2.00623192849968
O          -0.26880954482280   -0.53139179983531   -3.41693299911342
O           0.61235485671273   -1.12912525460095   -1.22181393055577
O          -1.78826149963964   -0.93062672069966   -1.57551411413638
O          -0.34590566001876    1.04682377068329   -1.55636055115303
H          -0.88381292003817    1.65878171795727   -0.08762365811093
H          -2.12332210081488   -1.11222422489240   -2.44670643709974
O           2.25378724581213    0.90206251506704   -0.87347864459753
H           1.89375404768762    0.01406640597188   -1.07581672299687
H           1.61344069274565    1.48340127568910   -1.30719644753554
O           0.42622921672972   -1.68187422969243    1.28274217068079
H           0.76610739440848   -2.57003302394941    1.39951643108533
H           0.45907443603726   -1.50608346750327    0.29964827965987
O          -2.15850652983205   -0.62591874968143    1.19064266354341
H          -1.36354088495294   -1.12384159901792    1.43433597402895
H          -2.27726838982494   -0.78647912285556    0.24536788840533
O          -1.04498456788652    1.78385260632522    0.87550541919890
H          -1.63298672089667    1.03435409697098    1.12034702655819
H           0.29749600930467    1.36245258875808    1.38726469849589
N           1.26621351627613    0.88849710785387    1.57776923270061
H           1.80957799352016    0.97249890707434    0.66716470257592
H           1.07561397124110   -0.11858324171658    1.72739697502741
H           1.75717234273446    1.30504279749875    2.35997395191841
