    23
        -45.37567304  Gyration_radius:  2.3751640996 Dipole_moment: 3.232
 S           1.32029757100609   -1.43796509442750    0.36933831286255
O           1.18741305504588   -0.66554788680699    1.57271881996642
O           1.64715277037616   -0.61639262275945   -0.79829728245670
O           0.16749779255295   -2.29151321694478    0.08347852432494
O           2.54004001971403   -2.42728956745380    0.56735733227560
H           2.42811566877302   -3.00082262281619   -0.18305873009375
H          -1.06102792820072   -1.46374902213469   -0.31749278512349
O          -0.22139752609867    0.49653541563977   -2.35442925731264
H           0.52914268149362   -0.01744225127041   -1.99048454887862
H          -0.02149305522150    1.40678924100766   -2.10834421515076
O          -0.05439386720445    1.69673748706402    1.73254326246660
H           0.35479903085507    2.06113462955231    0.92851085904971
H           0.41549560201977    0.85073037893516    1.86829927580087
O          -2.45351645211903    0.77710981506203    1.37029961473641
H          -2.64796837348651    0.34381721837696    2.20298437790362
H          -1.57704351861555    1.24029545176990    1.51456811492850
O           1.43681697742208    2.02297437149748   -0.54253879549704
H           1.60639026735461    1.05489405409511   -0.56876386443193
H           2.28251153579250    2.43547691093114   -0.36219150934758
N          -1.81260485441358   -0.78940118300852   -0.66413839937899
H          -2.13039839176624   -0.17650914086718    0.14135267547338
H          -2.59427957475735   -1.30096950959715   -1.05936978238561
H          -1.34154944042680   -0.19889286557440   -1.40234200967232
