    23
        -45.37078260  Gyration_radius:  2.26784298169 Dipole_moment: 2.650
 S           0.59614167170636    0.65839006394539    1.62060783302132
O           1.16882635253388    1.90591057382688    1.16399694426685
O           1.22436672815349   -0.51670011840433    1.04306642333995
O          -0.85599758329274    0.62611061598233    1.45519213697876
O           0.87015354455111    0.58222272436209    3.17651667313710
H           0.78642909763465    1.49550432510682    3.43010802602325
H          -1.43114094219524    0.94552436421331    0.10448291171902
O          -1.62327000016804    1.11101749106074   -0.89096374196207
H          -1.50251926344450    0.13991526603360   -1.35195741489434
H          -0.79072947671195    1.65839043766766   -1.20169537136716
O           0.61100870885449    2.15570095218503   -1.38889755589839
H           1.08862626461248    1.37467464991789   -1.71622942350936
H           0.89622298418931    2.24960433205461   -0.45044886330891
O           1.53824126501120   -0.42297281886099   -1.54750913099824
H           1.47552801549203   -0.47717602960438   -0.56137449405769
H           2.37396754596658   -0.82772144039199   -1.78400427019876
O          -1.09700280405667   -1.14483382668165   -1.79586615022065
H          -1.16086970195021   -1.67311146975484   -0.94283497970068
H          -0.14241266122360   -1.01970338276243   -1.94298007685388
N          -1.05300575874076   -2.18375086602544    0.62261250306147
H          -1.78863663697871   -1.75074359058347    1.16791347402344
H          -0.18563425923437   -1.72683680843271    0.90417005843706
H          -0.99829310088408   -3.15941544484109    0.88609448899078
