    23
        -45.37078226  Gyration_radius:  2.26781025229 Dipole_moment: 2.648
 S           1.68959789810762    0.19017807338019   -0.72349396945932
O           1.56944363817976   -0.73403293441680   -1.83002506264016
O           1.52743622714577   -0.43447488340063    0.57747635802572
O           0.81047635360318    1.34819061271904   -0.87574127959086
O           3.17023291433263    0.74509146539263   -0.76218048327891
H           3.33545717523163    0.78342793364020   -1.69842922063900
H          -0.64926145003802    1.11089888714040   -1.13934731184335
O          -2.08830897413015    0.23013795624466    1.15096186361780
H          -1.37915019085681    0.79859269416485    1.58036324333002
H          -1.73168226776309   -0.67589397895750    1.17361640332933
O          -0.91640156812932   -1.57348668086073   -1.90565295068478
H           0.03562533692941   -1.36427983164480   -2.04992762060771
H          -0.94531809257267   -2.01134744692994   -1.03801727742979
O          -1.60672365588461    0.75043747497101   -1.23297938631725
H          -1.92940736796663    0.58086486653565   -0.21504067636711
H          -1.45922171961647   -0.20464922196465   -1.62766068559433
O          -0.54629350960587   -2.00848690683842    0.77875705083281
H           0.27223076269533   -1.45452282414436    0.72826026857587
H          -0.32064738280754   -2.76929209779980    1.31579606369485
N           0.03170227923281    1.57330659354952    1.94720439087879
H           0.29964027178620    1.82260615931220    2.89075230474661
H           0.12221796044377    2.39769870556727    1.36568456766214
H           0.70835536178973    0.89903537464962    1.58962340971814
