    23
        -45.37030015  Gyration_radius:  2.26580723093 Dipole_moment: 2.660
 S          -1.57834477401740   -0.01823612360382    0.95660522123720
O          -1.57679581332763    0.59344677600444   -0.35486489924014
O          -1.20692380002743    0.88085161971388    2.02815700924021
O          -0.77536927327262   -1.24612512656144    0.97836460806759
O          -3.06806307991819   -0.46365745735242    1.24730852662320
H          -3.08441429554414   -0.45357421346088    2.19866041471428
H           0.74128247012520   -1.11715796280046    1.08006145966909
O           1.86981026182398   -0.44038308495179   -1.42604068046834
H           1.06382057222791   -0.96716162268628   -1.71690090541177
H           1.57841720625658    0.48964498548337   -1.43758984125724
O           0.57697250823048    1.91762445419319   -0.94695758188016
H           0.33590993245585    2.68279113518938   -1.47096473974030
H          -0.27061725747945    1.44088943178160   -0.74944047961256
O           1.71900401617900   -0.82792604749283    1.02275652736353
H           1.69752729655892    0.15298702960895    1.38650586608813
H           1.89912302081124   -0.72226304332051   -0.04467634038588
O           1.30022193710472    1.56317862153201    1.67202953273167
H           0.37101604207797    1.42496145479890    1.97070336982698
H           1.22158503669969    1.95882253678345    0.78674931691894
N          -0.43836764968202   -1.63904199371566   -1.83439834087272
H          -0.68473722341087   -1.69768184943445   -0.84707007581909
H          -0.60882253660823   -2.54166533478689   -2.25920708918628
H          -1.08223459721153   -0.97032418482123   -2.23979088875440
