    23
        -45.36705566  Gyration_radius:  2.32109765381 Dipole_moment: 4.971
 S           0.36870059646193    0.79387549181956    1.55539041816393
O           0.35840992058984   -0.63995386898446    1.30130767335200
O           1.44630510815302    1.26435706552587    2.34999882176282
O          -0.97698154494056    1.18526923179624    2.17178167451801
O           0.38984293256334    1.52159137684538    0.19606468513611
H           0.00895203593160    0.97033779601486   -0.59101218038552
H          -1.73331868580696    0.91227197589092    1.49523725821973
O           2.14294625788599   -0.27116334768383   -2.20330139052211
H           2.60318773825365    0.46364890095710   -2.61179298150506
H           2.48283326896166   -0.32552506742288   -1.28496116123821
O           2.87392450293945   -0.27781940511096    0.40900833098178
H           3.01509821144979    0.50188499454324    0.95489974685347
H           2.08033688094964   -0.68810353004828    0.78428396861965
O          -1.27322131485397   -1.98408942346607   -0.23804723623382
H          -0.96681127877459   -2.88349573226564   -0.36621168228647
H          -0.66883798400734   -1.57929646515801    0.42628437055671
O          -0.43769894446382    0.13213457371197   -1.74201516515187
H          -0.77466077498197   -0.70412149442812   -1.36549194700205
H           0.46821334130538   -0.06957482848504   -2.07886261521126
N          -2.69700508640771    0.49968678100399    0.40617769305550
H          -3.66373898272014    0.67497594834874    0.64641498369599
H          -2.57302256325929   -0.49339147778069    0.23276494306273
H          -2.47345364499849    0.99650049427536   -0.44791819851456
