    23
        -45.36366217  Gyration_radius:  2.3378289974 Dipole_moment: 2.866
 S           0.63380697622311    0.57300354210552    1.71652787656729
O          -0.36104897202302   -0.48723058167877    1.82421136662272
O           0.20400168118220    1.66567428676153    0.87207395648271
O           1.93653112881756    0.03152775161111    1.34604300650604
O           0.80578366198638    1.18454958982304    3.17096346158772
H           1.25094109759842    0.49826953705324    3.65903118795328
H           2.25229032614917    0.67533637925464   -0.19222561365568
O          -1.67986065009079   -0.25454768090226   -2.34713529105796
H          -2.22199589181648   -1.03317594161106   -2.48509128028342
H          -1.95486191202298    0.14078526283815   -1.44226917608013
O           0.73374231670429   -2.14454922421073    0.18123772384182
H           0.19533203046151   -1.60027215840286    0.81536807547844
H           1.63378588606130   -2.02559625124850    0.50528057069037
O           0.73165041806901   -0.86956621430671   -2.00324735124283
H          -0.25685537251734   -0.59376498928240   -2.20652879383047
H           0.71121617268055   -1.46884864801333   -1.15435947202962
O           1.93900087074448    1.10164243757437   -1.02253985077569
H           1.25874562767129   -0.00810023764071   -1.70730682080161
H           1.24781028238798    1.69143010984144   -0.67402882730653
N          -2.26077662020825    0.63957151392625    0.01477533979459
H          -1.45154601831442    1.20984795911671    0.26937795060183
H          -2.25549166966506   -0.12119027875777    0.68675030260187
H          -3.09220139014094    1.19520384615176    0.17309164835790
