    23
        -45.35445936  Gyration_radius:  2.41643480206 Dipole_moment: 1.371
 S           0.60738797130765   -1.69582724162596    0.34376654961597
O          -0.53758028002757   -1.41873882088959   -0.46605793844273
O           0.64399725679976   -1.13978655317942    1.66298891289390
O           1.88423127361575   -1.37342673257904   -0.40307135609980
O           0.66440313509352   -3.26777898909277    0.51007519795706
H           1.27278007443724   -3.47928575979073    1.21609593438034
H           1.61381677952791   -1.15899737348614   -1.43556729217072
O           1.00580742573644   -0.81706013486852   -2.62834880386427
H           1.04867915731863    0.18662865004655   -2.56872385773143
H           0.10081666081549   -1.04939932942336   -2.37632919390695
O           0.71782575000890    1.41477941426401    0.50302948370290
H           0.82436014311839    0.60144319759198    1.00626526031100
H          -0.19242610978708    1.74975944494981    0.71950408470893
O          -2.12813712489075   -0.70761293194434    1.68974170330295
H          -1.92647459001622   -0.99422852803297    0.78982821544652
H          -1.28951621424127   -0.79109306084232    2.15724314902829
O           1.11097736805011    1.70663022839477   -2.08606037103515
H           0.93154389226177    1.63012261683151   -1.11461061868643
H           1.97340134097939    2.11883926396726   -2.15982837605265
N          -1.81702785205540    2.11836357410766    1.09515067654564
H          -2.37698670494040    2.41580663877453    0.30665685092818
H          -1.98978941943601    2.75782503831108    1.86000724341946
H          -2.14208988365683    1.19303739850528    1.37824456574512
