    23
        -45.35445933  Gyration_radius:  2.41631248585 Dipole_moment: 1.370
 S           1.65565789157055   -0.77684631703457    0.13323648685281
O           0.91909843346630   -0.29457689843632    1.25950064400257
O           1.88596078813582    0.12820251343127   -0.95245016063043
O           1.06941185920377   -2.07677583062154   -0.37520107529751
O           3.07703909270887   -1.20292478374929    0.68101160200633
H           3.66896427706785   -1.31900361169233   -0.06022887947287
H           0.32407657149914   -2.40408086346390    0.34789186614877
O           1.35689758675666    2.37284605612683    0.64548420525387
H           1.72882574203156    1.98343959581028   -0.15376767042920
H           1.13610292446016    1.61251489554840    1.19837904123937
O          -0.63532907901822   -2.52977116432062    1.33388926050264
H          -1.45021995464461   -2.22228306540031    0.82966833670116
H          -0.36349071647607   -1.76970020713753    1.86768804142822
O          -2.47673523752175   -1.52793075052408   -0.17598758724413
H          -2.80853200899982   -2.09829533049210   -0.87150120211224
H          -1.90946040624913   -0.85344332422255   -0.62871655807029
O          -0.88451436424396    0.17872910367945   -1.39909984694720
H           0.07677933594701    0.14175528390615   -1.42474783669923
H          -1.11191006389701    1.09449573398862   -1.08717549883995
N          -1.32949620845926    2.65259994497261   -0.42285121272928
H          -0.41721468010857    2.78083266311983    0.01686052263304
H          -2.03350951474265    2.70881054476421    0.30168426854648
H          -1.47840226847826    3.42140581175551   -1.06356675684218
