    23
        -45.36038343  Gyration_radius:  2.35827211717 Dipole_moment: 1.116
 S           1.96088824030338    0.45394440746623    0.02149531328574
O           1.98484116670122   -0.28725503872310   -1.20226236873055
O           1.55386939601685   -0.34216811387527    1.18059603824299
O           1.16056319722757    1.68289775141241   -0.04603925231737
O           3.43706283877437    0.93520448976599    0.32079895816656
H           3.31116987271720    1.46312837763316    1.10177347511949
H          -0.17245429939425    1.81233131437229    0.47838758009398
O          -1.16205755306656    1.78824411547843    0.82246573354200
H          -1.17799347712602    0.98821627577303    1.47146196121704
H          -1.72914564505980    1.52779486729620   -0.03171310043720
O          -2.31678457235386    1.10188951616721   -1.28452446136884
H          -1.71739827909972    0.29479770462283   -1.53510843444384
H          -2.16157322462470    1.77160005937550   -1.95302937867148
O          -0.04216635744593   -2.40527741704217    0.55466619184669
H           0.64429402667298   -1.72300775923663    0.70539830353198
H           0.42405142386753   -3.24124582585959    0.51446293455053
O          -0.85013984584527   -0.26068017246739    2.28033966225886
H           0.11422825452608   -0.26969418749177    2.09185489274983
H          -1.17194862307151   -1.07992384210167    1.88492278090559
N          -0.71432065275178   -0.84165177152996   -1.81488329283675
H          -0.80351814697645   -1.55758458123545   -1.09631474579652
H           0.25281970968004   -0.51489914480899   -1.75200462842315
H          -0.82428743966962   -1.29666103499245   -2.71274416248137
