    23
        -45.36038307  Gyration_radius:  2.35862003539 Dipole_moment: 1.115
 S           1.10876459284332    0.04278149794006    1.68012423916312
O           1.11546637457374   -1.26956817444401    1.03159042666303
O          -0.13835985517613    0.36730472474816    2.30225656410917
O           1.58645971573806    1.06594426284737    0.74181652095602
O           2.20812518104132   -0.02693541071626    2.81454033403329
H           2.99667530134337   -0.18196398223252    2.30579607423859
H           1.45846067224570    0.97918370359395   -0.68848994765272
O           1.25456886883135    0.85912458758058   -1.70926063333462
H           0.32336245137074    1.34190919706438   -1.84888179775336
H           1.10585063506079   -0.15502362896646   -1.81285048868423
O          -0.97269091905576    1.98541661598142   -1.82599024757736
H          -0.86879092921520    2.90121457424341   -1.56135387285704
H          -1.43551699386770    1.50335911412047   -1.03388961911553
O           0.88861258215451   -1.64477982785409   -1.57664048246452
H           1.15150488133775   -1.65116964286268   -0.62981687776954
H          -0.03940713311878   -1.90877255001966   -1.56189858027630
O          -1.30680333507323   -2.08502279258390    0.21630802202940
H          -1.70862121239206   -2.71885162379468    0.81186881712104
H          -0.47727158448500   -1.79787857740290    0.65089528073193
N          -1.97858232937603    0.75393275866861    0.19784531124449
H          -1.33071907357474    0.81127662102388    0.98727287687158
H          -2.05648943209047   -0.23874885884944   -0.01498226982050
H          -2.88459844910020    1.06726741192555    0.52374035014480
