    23
        -45.35464212  Gyration_radius:  2.33212008525 Dipole_moment: 5.970
 S           0.24380935782657    1.25942724466524    1.37623094331600
O          -0.06767373813435   -0.06410821231272    1.82180425328177
O          -0.50171005948718    1.72618730050589    0.25357513191321
O           1.75216068360603    1.41827807478697    1.14942292626408
O           0.05268974427512    2.25537892114416    2.57558798708613
H           0.91908742160079    2.61149966211208    2.75300629536144
H           2.04361984764433    0.81313462164249    0.33706664380851
O           0.01877651687794    0.65371355858655   -2.25667705451506
H          -0.30020035813527    1.14141108970515   -1.48354395137797
H           0.95563229766973    0.49767974966022   -2.09762726280618
O          -1.05801566411055   -1.78603743202754   -1.61347148813150
H          -0.75242654050776   -0.98494124914414   -2.07890065937306
H          -1.75803387889272   -1.46563716844755   -1.00692649509052
O           2.34276370502723   -0.09575291173153   -0.72810768184379
H           3.26237896664518   -0.36942776963763   -0.69927919821970
H           1.77880137592302   -0.93347532382959   -0.45208323683862
O           0.89668729979552   -1.97882007120655    0.08105645482703
H           0.49245633975192   -1.54860425244107    0.84905418469153
H           0.15761513002222   -2.05425398739458   -0.59831705186210
N          -2.56747232620822   -0.46564291587887    0.26007478088375
H          -3.46197428378939   -0.64614009536119    0.69851627295614
H          -2.59146947274758    0.47104205214605   -0.12586617919047
H          -1.85750235465268   -0.45491087554209    0.98540439485936
