    23
        -45.35464212  Gyration_radius:  2.33211978501 Dipole_moment: 5.970
 S           0.27783764225411   -0.42142053880387    1.81241063496852
O           1.46314871831697   -0.32077367020443    1.02569141498565
O          -0.81898743790514   -1.10494340559310    1.19834613081467
O          -0.16007631290631    0.95047860279436    2.33959414976821
O           0.61736764943581   -1.12894342296618    3.17293791489626
H           0.43877525157237   -0.48149310302385    3.84958899052986
H          -0.40666751506485    1.57012189588112    1.52331905152662
O           1.49354798869693    1.39266683817049   -1.16192803845982
H           1.67728223459309    0.75749877821296   -0.45472642462276
H           0.89031195786484    2.03929711927610   -0.78072109514001
O          -0.78410383612605    2.29999888377182    0.35072578060905
H          -1.41498062910177    2.99143973724360    0.56362531810872
H          -1.31473392206205    1.57386135021392   -0.18516650348694
O          -1.98131193023987    0.41547466399462   -0.79255186920725
H          -1.80301353255147   -0.29343961328676   -0.15697382121197
H          -1.41842254539480    0.19554161055844   -1.59769381496297
O          -0.22966676599448   -0.17231659763531   -2.61345504370700
H           0.06305086134365   -1.04302029231315   -2.27173785676066
H           0.46862193869533    0.44806651239248   -2.33188350564362
N           0.64744573387784   -2.28922775067491   -1.10301336072321
H           0.02642992688399   -2.12776830363345   -0.31653594953852
H           1.56189674958081   -1.96300271647817   -0.81273508141235
H           0.70624776423128   -3.28809657789682   -1.25711700133056
