    23
        -45.37330135  Gyration_radius:  2.31151155765 Dipole_moment: 5.656
 S          -0.85977036199162   -0.75118493885595    1.16504555308334
O          -2.15862285807536   -0.25761211296398    1.59609091132306
O           0.12079844394819    0.34022283981327    1.21303734082653
O          -0.88854948993053   -1.34976276358165   -0.16591084961186
O          -0.40194675245493   -1.84759596707060    2.17375584638885
H           0.31635324768516   -2.34281478164057    1.70455840200864
H          -1.15141307924637   -0.12132316322211   -1.27471335384551
O          -1.18635490088451    0.75512925187143   -1.72340321476876
H          -1.60744185457149    1.58945194500917   -0.57873524522564
H          -0.24971138808479    0.95373653220270   -1.95438847270747
O           1.30949165763854   -2.75278720585073    0.40674283566117
H           0.53937501221289   -2.52230467340253   -0.13956793025951
H           1.93731669510933   -2.02600089730546    0.26511276142629
O           2.35329491561915   -0.19530863227740    0.07600109555491
H           3.03904154775815    0.23567405053620    0.58894003512552
H           1.49158268588574    0.02021700635164    0.53606457608165
O           1.44855808205314    1.01654029939103   -2.18534489617347
H           1.83026658380684    0.59172014575954   -1.38951733151104
H           1.69411917767587    0.46251213742734   -2.92842566278719
N          -1.85842713847880    2.00714238830026    0.41208281917773
H          -2.14778247074545    1.13634482169894    0.97617271641161
H          -2.57590484276787    2.72416786907589    0.38554435236270
H          -0.99427293214635    2.33383585872855    0.84085771145420
