    23
        -45.36596495  Gyration_radius:  2.40386812932 Dipole_moment: 1.818
 S           0.28711901868220   -1.46563227639316    0.50899694110019
O           0.81600724974426   -0.27063405549075    1.12070969206121
O           1.04333634330323   -1.94324084219317   -0.61441561221932
O          -1.17410758047937   -1.21500924367984    0.10578428902931
O           0.15304788318478   -2.56746099492825    1.56225497123338
H          -0.33881264609210   -2.08819360401709    2.33072275326391
H          -1.26590510477791   -0.58585387815337   -0.73068669295149
O           1.62229520287457    1.78145537753209   -0.45715215830613
H           1.45682680709805    1.11248304734863    0.23069372332071
H           1.75450593974581    1.27682865470085   -1.27143102432686
O          -1.25724325589248    0.33039988802575   -1.86257591105639
H          -0.37482223418959    0.21650667801929   -2.26427742120248
H          -1.25109267286752    1.23226983099682   -1.45557745142973
O           1.35934607088455   -0.14479943792097   -2.50877999333506
H           1.72243828369113   -0.53598061764182   -3.30545417612791
H           1.34363289881420   -0.85973290461060   -1.83281247427230
O          -0.84459279878658    2.70381113979336   -0.75457530474363
H          -0.81775801907942    3.48900114343785   -1.30345378409718
H           0.09662635550276    2.47456833022901   -0.55123437734906
N          -1.00084126053652   -0.96494616284158    3.18091634026149
H          -0.42737608912497   -0.22613554717130    2.78366887749534
H          -0.94238143519436   -0.93560043312681    4.19027129444368
H          -1.96024895647927   -0.81410408199134    2.89840750918895
