    23
        -45.37301773  Gyration_radius:  2.28419513925 Dipole_moment: 3.695
 S           1.69512444274989    0.26535082688748   -0.39559010022673
O           1.09656339345305    1.58630886317865   -0.30758131594988
O           1.46537610850912   -0.42384899434368   -1.63476940507555
O           1.30699659780674   -0.56556516890789    0.75757422674826
O           3.25470554218082    0.48410225954159   -0.25470261189377
H           3.30675309599843    1.09599526505347    0.47227753667152
H          -0.21257048536394   -0.12613145322183    1.54868241841101
O          -1.42875006614061    0.80787165760681   -0.92391432051060
H          -0.54668778069330    1.21451317149496   -0.91323514181462
H          -1.33700754563209   -0.54931822005221   -1.98302108126080
O          -1.16082717234867    0.04193700504622    1.69939365261603
H          -1.59047839651579    0.55422847574369    0.00412852484355
H          -1.17223682785781    0.96137954217794    2.01311385308347
O          -0.37045217415441    2.65471325472188    1.70372895272531
H          -0.86824375744046    3.36953601325087    1.30343205601731
H           0.23489714714354    2.33318718453656    1.00807438036208
O          -0.92014676286072   -1.39907495942463   -2.26484927544898
H           0.01703294045411   -1.14586965292151   -2.37843600402465
H          -0.78939418369983   -2.01819136794044   -0.93260843110240
N          -0.56523535857697   -2.26759369056264    0.12208643454096
H          -1.30170502692979   -1.90351214367210    0.72962287821610
H           0.31050582163629   -1.70879942127882    0.35787346336011
H          -0.42421956172797   -3.26121845690412    0.26871930972519
