    23
        -45.36777841  Gyration_radius:  2.32684118124 Dipole_moment: 1.016
 S          -0.61183075039957    0.71894410034093    0.22348712798089
O          -0.59832025008105    0.65184003941656   -1.23530355901051
O           0.35998846862172    1.65316169027813    0.75226140834940
O          -0.41707801509394   -0.62664424886243    0.79385762560298
O          -2.03652950241980    1.18168942183325    0.62856588438007
H          -1.97595157893398    1.19045581427845    1.62327808564419
H           0.00694029968236   -1.66721806934853   -0.07024008818024
O           2.76972356091545    0.73714199075928    0.18007707192767
H           3.32720517321767    1.50827130210865    0.05963641045177
H           1.89622623276043    1.08018600429098    0.47701983309933
O          -1.64974533860086   -1.48455274957436   -2.33859956135268
H          -1.44705190437234   -0.60061038089233   -1.94910744860135
H          -1.55709728893018   -1.38829592111836   -3.28869417221929
O           0.30597795806138   -2.28467362139545   -0.88702218573749
H           1.03290124851634   -1.66448002053191   -1.35146840668471
H          -0.49767594805009   -2.21400186294536   -1.50188428417404
O           1.71278174574522   -0.49279939391226   -1.90934706994126
H           0.93277780899711    0.09961621370096   -1.88448658998350
H           2.29938452694075   -0.13934106508469   -1.19945914053962
N          -1.17777192368280    0.99479290477331    3.07178121494394
H          -1.36444488572618    1.23770579834408    4.03675857958794
H          -0.35769309485209    1.50037160938682    2.75222676926491
H          -0.95271653249614    0.00844044441904    3.01666249519614
