    23
        -45.35849279  Gyration_radius:  2.33003197155 Dipole_moment: 3.346
 S           0.93873042377567    1.01896211382160    0.02013355614539
O           0.97122844376956   -0.27567285397541    0.65853417052466
O          -0.29924126072907    1.32069355331832   -0.64088684659047
O           2.11160787668806    1.18603185142876   -0.92668457308673
O           1.23894329284776    2.10053309738306    1.09079911156167
H           0.87129024991910    1.76473345356627    1.94468722581730
H           2.09471239416567    0.41397111170040   -1.64608649579021
O          -0.63383805069360   -0.80249233770501   -2.33045539042614
H          -0.83034825039601   -1.47663259258717   -1.63397289422529
H          -0.74697302343752    0.04872618158871   -1.87956449964731
O          -0.95406264945363   -2.16223047403810   -0.07179833075867
H          -0.11496713328446   -1.80276379449620    0.24412231347661
H          -1.62963603485794   -1.59502969725116    0.35227186219581
O           0.26252393281499    0.63088707510412    3.02281184609854
H           0.41429351669233   -0.01398031279071    2.30450069410773
H           0.83914943614376    0.38159976902469    3.74920063441086
O           1.90023786778646   -0.61808886080127   -2.62861465127298
H           2.06043411122658   -0.27041319843879   -3.50966769746594
H           0.90174041576246   -0.80431186581219   -2.57102327503249
N          -2.30350677865061   -0.02865214830730    1.05531884897586
H          -3.28177255368277    0.20570474712921    0.93961247044357
H          -1.76489165768623    0.58335086274762    0.44768372741711
H          -2.04565456882717    0.19507432934479    2.00907821315505
