    23
        -45.38139732  Gyration_radius:  2.27244811074 Dipole_moment: 2.619
 S           0.45962553754798   -1.37089581019559   -1.01100842461830
O          -0.98938725095219   -1.17155677283189   -1.02378019698512
O           0.91690177624351   -1.98234630671716    0.21568834442312
O           1.16540074562572   -0.14433183681676   -1.34318656990976
O           0.77781531981152   -2.39465884449539   -2.17500118425299
H           0.57751818827420   -1.89462806439889   -2.95983719098407
H           0.47539748705076    1.39075290782519   -1.05003405374096
O          -2.39289009012623    1.05317140513809   -1.43197311597603
H          -3.19455085721284    0.93700738968373   -0.91953531512391
H          -1.92243944064914    0.19523332664367   -1.39337800180647
O          -0.04557746757009    2.12700665234216   -0.66373480228769
H          -0.95441917112646    1.97265694361521   -0.98978087758508
H           0.06062509049285    1.70084365492167    0.81471654074845
O          -1.27850806182202   -1.00572342083308    1.58022038827463
H          -1.32022877667917   -1.08634699167633    0.60051862945945
H          -0.69140150363364   -1.72563951954412    1.83294503924662
O           2.47989610719765   -0.07625511679796    1.09461394501136
H           2.02114984249147   -0.91867458768383    0.87487694454767
H           2.66864820919927    0.30074415100931    0.22790270866368
N           0.24180300496237    1.17807242058642    1.73958825155442
H           1.20863455879206    0.75149652653946    1.63825379934043
H          -0.44168557804353    0.37521696897967    1.79615860959963
H           0.17767232016136    1.78885491468320    2.54576652240817
