    23
        -45.38117594  Gyration_radius:  2.29826331198 Dipole_moment: 2.263
 S           0.33889875627877   -0.72263372309918    1.26386303269092
O          -0.95388558718699   -0.62604386901271    0.58801688865257
O           0.57297471868037    0.41941495682312    2.12454470108791
O           1.40943060973252   -0.90620266371075    0.28131651213040
O           0.30727236820989   -1.99495232701856    2.16836537622241
H           0.29376234162138   -2.72730459640402    1.52290568431768
H           1.59193945765877    0.40678365180727   -0.82304307695511
O          -0.93725581127955   -0.19110106577733   -2.01532029130501
H          -0.87246515840530   -1.01511986186824   -2.49999159270868
H          -0.95139543025547   -0.44302949335264   -1.06294399470157
O          -2.31229832055179    1.59128600265393   -0.04439661115660
H          -2.36696651624364    1.39832348866575   -0.98623938944566
H          -2.03564704718394    0.74420968755287    0.36094000863246
O           1.33270532691791    1.15567160154709   -1.39980104166572
H           0.56302986605941    0.80534202944460   -1.89002998963496
H           0.69178435512898    2.09399496558831   -0.31162448383594
O           0.75168415208811   -3.40485690976551   -0.05105192063868
H           1.51579776428772   -3.98517801973736   -0.02998282890673
H           1.09827187108383   -2.49269479010438   -0.15502875953603
N           0.13405604969069    2.44000376517940    0.53498615179593
H           0.37671026279039    3.38534002286495    0.80930514470789
H           0.34317320579158    1.73804642349818    1.30341237385753
H          -0.89157721490435    2.33070070421257    0.31179812639003
