    23
        -45.38087153  Gyration_radius:  2.2763794191 Dipole_moment: 2.868
 S           0.98669961402608   -1.33944275608475   -0.48208623123301
O           1.56870690323496   -0.05527519738380   -0.83173882166955
O          -0.12388214882700   -1.69841019174911   -1.35087509733984
O           0.62178979173769   -1.43905861242795    0.92070622554333
O           2.13260906887340   -2.40330884731482   -0.72902596524313
H           1.75423189617164   -3.21056445941825   -0.39669931009373
H           0.37280250915637    0.03022280172982    1.75972482743999
O           2.25321312639155    2.00857875489965    0.71542960474517
H           2.15915094806012    1.21858711005298    0.14672153757792
H           2.35576227744498    2.75314485130645    0.12080245692251
O           0.12708178284213    0.95060095449600    1.99433105600983
H           0.90008109980253    1.48260942859509    1.72253073277358
H          -1.05812421250238    1.14480834258020    1.02988166044790
O          -2.08372959768873   -1.59405272901531    0.37509701865249
H          -1.46276913464918   -1.73835108610832   -0.37674442876178
H          -1.54376746112225   -1.80204048899390    1.14600359349808
O          -0.53020001266609    0.95548568110981   -2.03778718115900
H          -0.83503249642712    0.13341889955068   -2.43726896861146
H           0.34967189230840    0.70948763902532   -1.67563692961631
N          -1.82779177122605    1.03608958439772    0.28248070938630
H          -1.38511587067988    1.15700246963657   -0.66937956097433
H          -2.59828998317828    1.67780936098035    0.42926190244333
H          -2.13309821109281    0.02265849014575    0.34427115927095
