    23
        -45.37287936  Gyration_radius:  2.31553996431 Dipole_moment: 6.127
 S          -0.66530387751169    0.77029897962392    0.29821265966902
O          -1.40815724936052   -0.41110527449193    0.71789680810198
O          -1.11100779578949    1.29359869094062   -0.97572343958918
O           0.83134158184771    0.30803866584557    0.15234526200957
O          -0.59377554231130    1.77757732177817    1.35825937744090
H           0.32849883181097    1.23606521160720    2.27772820213561
H           0.89189272079352   -0.30063467035906   -0.66546502802075
O           0.81513629173367   -1.14641097185925   -1.92979879721179
H           0.94829245586802   -0.40882099891539   -2.55815299291441
H          -0.14466262928736   -1.35547152295362   -2.00391465840765
O           0.27923412896163   -1.71497273428920    2.16119164765159
H          -0.47832202294036   -1.31307858013507    1.65329674843666
H           0.83653304134939   -2.12582147026414    1.49529959438698
O           0.49623376592520    1.24964985702306   -3.13459209279953
H          -0.09424499866851    1.33627913454015   -3.88536808631235
H          -0.04932460781703    1.43166046902464   -2.34424345619484
O          -1.86246055513878   -1.12319284435827   -1.88784874866890
H          -2.12297468345714   -1.46310208281405   -1.02519758161562
H          -1.78646381304880   -0.16395917590913   -1.73572338731996
N           1.07055339852671    0.67552566218350    2.89815367867363
H           1.99873140999141    0.89789996497205    2.55090754616308
H           0.84111365785366   -0.35155347825749    2.69925814519764
H           0.97913650066233    0.90152985707741    3.88347858917351
