    23
        -45.37287942  Gyration_radius:  2.31533739311 Dipole_moment: 6.127
 S           0.95793047730896   -0.04319262765956    0.45389136413838
O           1.31817383535393   -0.13957231068549   -0.95493021632512
O           0.92048316577789   -1.33000537335062    1.11582532549037
O          -0.48718612019366    0.57771233383498    0.48691214187133
O           1.75992740231742    0.95984491543502    1.15676670029698
H           1.24179968602282    2.18905418357761    0.69819175264984
H          -1.13779285672013   -0.12596039585880    0.13398253609540
O           0.21799522946247   -2.64140294135814   -1.12589901629139
H           0.70225460822690   -2.05721239014045   -1.71911587030265
H           0.57868029400489   -2.41698332654354   -0.24926865111471
O          -1.97119847200065   -1.29613586370335   -0.37170148891547
H          -2.09837429509071   -1.71928982896148    0.50084714829912
H          -1.30759934427423   -1.86799454909073   -0.82233475714178
O           0.14479719620709    1.88597097675499   -2.02751752359031
H          -0.76369448184604    1.58048495507764   -2.09144580417630
H           0.66888577394809    1.08499757312359   -1.74973229776065
O          -1.39163072048837   -2.34334461509519    2.04942329328203
H          -1.23089313987252   -3.28416737376893    2.14340251039910
H          -0.51873291565803   -1.94014327467350    1.87350160984907
N           0.72394046899840    3.06838004131599    0.24189365720213
H           0.44026597545971    2.71791032255778   -0.72959188844384
H           1.33618068135797    3.87636635188923    0.19078434938399
H          -0.10421243829564    3.26468323736600    0.79611509511210
