    23
        -45.35672220  Gyration_radius:  2.31987686422 Dipole_moment: 6.660
 S          -0.99877730255764    0.10757179573405    1.62360805922022
O          -1.12684789947985    1.11119903972721    0.61710240714060
O          -0.00952085425554    0.30867551864444    2.63530431125034
O          -0.85504195492026   -1.27759995725716    0.99529951763769
O          -2.39459237676209   -0.03258423330745    2.33258550030384
H          -2.21150293104832   -0.45486688097484    3.16812560711404
H           0.10332999205128   -1.40290315371259    0.54989222939474
O           0.94048868194326   -0.22081072021664   -2.15598828904387
H          -0.04279965287364   -0.27995765726899   -2.22924747266237
H           1.10763778374097    0.69919923342053   -1.82688603118067
O           1.11047068227444    2.05188443099254   -0.81810135913533
H           1.72995580127714    1.79304912782070   -0.10794222919976
H           0.23773224967085    2.01317987945222   -0.40621693772750
O           1.35840299026681   -1.54787528606621   -0.07986913683304
H           1.23801630441179   -1.00322636874076   -0.98124385905692
H           1.48459586131150   -2.46357156220137   -0.33738727081294
O           2.32301627160642    0.78938326478045    1.26371977924592
H           1.60779418499293    0.74471077470191    1.91535037995723
H           2.38466778590881   -0.09425469499969    0.88415272656526
N          -1.74786376405059   -0.25630122879454   -1.86862069133607
H          -2.20737705189945   -1.12486979837256   -1.62586599317345
H          -2.33945122632799    0.23532210871871   -2.52669730942740
H          -1.69233356529159    0.30464635794696   -1.02107393823343
