    23
        -45.37659803  Gyration_radius:  2.32095365089 Dipole_moment: 4.315
 S          -1.71781978505695    0.74178573410635    0.30629934243063
O          -2.06324813284649    1.26055127191506    1.60241059993835
O          -1.09957275110393   -0.57603238468281    0.31914216467027
O          -0.96568469172614    1.67135898128368   -0.52468986242021
O          -3.10593144393941    0.50973219195661   -0.46014447098854
H          -3.67116975826173    1.17973591267043   -0.08807215999786
H           0.34607496024001    1.15735936575160   -1.13694791856374
O           2.41720971893615    0.03200156205865    0.68826031072067
H           1.87391185660813    0.57915407344107    1.29018426670172
H           2.08780123806998   -0.88054359677064    0.84069995034501
O           0.52203754106658    1.18985395398021    2.23814850716574
H          -0.40816536414799    1.31539462686843    1.97391157768691
H           0.49042992472794    0.73082612919547    3.08108068278673
O          -0.38333484634962   -1.51067395448688   -2.01769860512748
H          -1.13929319086268   -1.50185103406522   -2.60618414161176
H          -0.73040766076334   -1.23624095724140   -1.13424766808981
O           0.96574021603676   -2.21037471434128    0.91151238615284
H           0.16138749090674   -1.66159201219010    0.89120181372514
H           0.91821898874922   -2.75906761441507    0.12554009818817
N           1.19196781754813    0.63158446605596   -1.51821538214884
H           0.81014690750242   -0.24178609998919   -1.92899092517425
H           1.80227778928958    0.39128837649889   -0.65502377663526
H           1.69742316536972    1.18753570239382   -2.19817677975201
