    23
        -45.36372523  Gyration_radius:  2.33002852725 Dipole_moment: 2.893
 S           0.05996936902629   -0.77823051155797   -1.27105295960925
O          -0.06025578728075   -0.99505557437902    0.15337867035467
O           1.39606595366384   -0.82243305950288   -1.76595744680496
O          -0.61479497525559    0.56627159194160   -1.62911163952497
O          -0.82589771709418   -1.77776536226432   -2.01785455945620
H          -1.76401844726235   -1.58117113516737   -1.69724916758255
H          -0.36958893379328    1.29232220723633   -0.96215982702344
O          -2.14681181812440    0.42938190279340    0.95288268153458
H          -1.84638486992363    1.33704131125386    0.85391740354369
H          -1.34052166941818   -0.11586897354130    0.87390928580338
O          -3.08872338586003   -1.15857154394316   -0.97754465243843
H          -3.45512486218096   -1.89499289418130   -0.48201678641594
H          -2.86831824101112   -0.46460996744187   -0.31083931724851
O           2.39756158710752    1.10007088607350   -0.05033621178566
H           2.26150300336980    0.45775532112171   -0.76465258075886
H           2.48518998382840    0.55183060027611    0.76664396426362
O           0.12847460304204    2.29800453997182    0.07394089567430
H           0.24201769022244    3.16396105937808   -0.32449174107605
H           1.05609280324427    1.89831254993006    0.13313442807889
N           2.19944607470869   -0.66041823695501    1.98766626155152
H           1.36263226124928   -0.97572094554482    1.50192206067096
H           1.94147731754692   -0.43509286480870    2.93997146178742
H           2.85001006019307   -1.43502089059850    2.01589978646317
