    23
        -45.37379024  Gyration_radius:  2.37383176088 Dipole_moment: 5.375
 S          -0.42216996704806   -0.52254664680419   -1.59289231902959
O           0.67748832408408   -0.85710726335121   -2.46091928823313
O          -0.43212944624768    0.88587586873143   -1.21672283782166
O          -0.42781880170356   -1.35303659954368   -0.36614714753794
O          -1.75178771172688   -0.84074025757111   -2.35226185715431
H          -2.44721857548813   -0.80739848226021   -1.66372175720225
H           0.93224772601887   -0.99015575587590    0.30527001671249
O           1.00570256381178    0.89818726674584    2.72314530475107
H           0.22907209008727    1.23282511974265    2.20817595245872
H           0.63503124243221    0.44575695986508    3.48284587429694
O          -3.03053374595634   -1.04775602962748   -0.03808142299747
H          -2.07474179837934   -1.16534766031658    0.13412753991596
H          -3.44037118570590   -1.90327277739829    0.10670310280066
O           2.31617222655453    0.92894599293068   -1.46191010389004
H           1.90726339940415    0.25249785836251   -2.04652146098671
H           1.61882760695724    1.59120504130317   -1.38339025641070
O          -1.07876431769780    1.49868877642450    1.23675188900507
H          -1.53502678754446    2.33786902741084    1.16291393309132
H          -0.86634385314518    1.23008679471504    0.30951891524809
N           1.84500914725210   -0.57342889754832    0.66109378010430
H           2.52862185136624   -1.30132526477371    0.83977490398482
H           1.63340677852769   -0.01357566688319    1.52915094149805
H           2.17806323381832    0.07375260592192   -0.11690371261764
