    23
        -45.37945364  Gyration_radius:  2.28930707227 Dipole_moment: 3.699
 S           0.45776190805227    0.03349632636470   -1.13202196675454
O           0.89360000388420    1.39226350083100   -1.39380906200525
O          -0.96179688365258   -0.17612214548617   -1.33816725361643
O           0.87401062062098   -0.40537208995520    0.20759642153094
O           1.18511457319122   -0.92822486497742   -2.13947304544313
H           2.12940967864262   -0.71421479053613   -2.00002707617607
H           0.12803060325343    0.39358855605655    1.61913608598759
O          -0.75437125893980    2.73683695795174    0.21001707617736
H          -0.48111445190113    3.65601893923938    0.19148965734610
H          -0.19714748153463    2.27625225640956   -0.45076306166634
O           3.29460424128350    0.25180027101349   -1.07173704069855
H           3.08274898657241   -0.06325561151496   -0.18680638105424
H           2.69060285216114    0.99733853307056   -1.22379679896147
O          -0.32964780546244   -2.73445568105628    0.57880856669428
H          -0.28296177984606   -3.16830720317140   -0.27509353559412
H           0.24089273529184   -1.93727018674256    0.50110509355447
O          -0.60192370650555    0.83179127123938    2.09665293319433
H          -1.69535581370429   -0.14431684318312    1.53173688495994
H          -0.74045106024302    1.66177917566398    1.59759846719688
N          -2.17464004951765   -0.83022360132418    0.85913592978587
H          -1.86225979419534   -0.50500010141230   -0.10409278041814
H          -3.18228603248255   -0.86493802575352    0.95983852840804
H          -1.71282011497742   -1.75946463273861    0.96267233755629
