    23
        -45.38014064  Gyration_radius:  2.28514292931 Dipole_moment: 4.829
 S          -1.26400429519759    1.06730208133415    0.89205449338572
O          -0.13471717856755    1.61774982471378    1.61989433613401
O          -1.38101542069612   -0.37534976047499    1.08118512205526
O          -1.26724259549100    1.45895457668666   -0.50321099891557
O          -2.57448241334377    1.67869740091266    1.53300059677894
H          -2.52307547480933    2.59134672138831    1.26830228929512
H           0.27310118113289    1.22208547803739   -1.26901736468166
O           2.21144595615713    0.70141415015306    1.06962514682511
H           1.33404244955738    1.10503100749945    1.31161362593338
H           2.86535628385673    1.14061210287566    1.61523868199737
O          -1.97523198659576   -1.00327907343414   -1.47264347127512
H          -1.95806523483747   -0.97597107246724   -0.50117954403124
H          -1.94561506150995   -0.07007385329670   -1.71707342974261
O           0.58165031047124   -1.66614959662780   -1.87620137302485
H          -0.40086908106888   -1.59073392649547   -1.90772885893331
H           0.82925547239420   -1.77046795984364   -0.42160808269093
O           1.14776796883661    0.91071795445419   -1.57079811610526
H           0.89725148253827   -0.74169921644555   -2.01017453638077
H           1.73265037880954    0.98743247221176   -0.80677220752105
N           0.89407987791961   -1.63677697820083    0.67199931338853
H           1.07235924694709   -2.50767189951630    1.15890085423914
H          -0.03124390549388   -1.21905103921716    0.95604551604608
H           1.61660202896428   -0.92411937420577    0.87854800725298
