    23
        -45.37694065  Gyration_radius:  2.37943088417 Dipole_moment: 2.235
 S          -1.73415589904911    1.04552539182669   -0.64695077509144
O          -2.31989450656298   -0.26378036278963   -0.76087923077795
O          -0.32297143220479    1.05237630321325   -1.04363847591293
O          -1.90147945765099    1.66809310514096    0.66181813393446
O          -2.49119553040079    1.99223688849086   -1.66826782028155
H          -2.30421438382974    2.86057115500127   -1.32486418628385
H          -0.90518997065046    0.92436779758558    1.61338085406165
O           0.50852245713792   -1.36338739158422   -1.59084430715163
H           0.18796315612155   -0.43808489261576   -1.44070908210049
H           0.05440648037889   -1.66817347341276   -2.37774835498831
O           1.84294471073775    1.20225906297521    0.58714691064735
H           2.41653013330273    0.48487134417472    0.25383166676042
H           1.19348392384123    1.35814216451485   -0.12307908837265
O          -0.84514161041461   -1.89158825033242    0.72279084440201
H          -1.59616328772713   -1.44935492385561    0.27432045401645
H          -0.20177787405251   -1.99443407303395   -0.00011599018320
O           2.97107521720694   -1.04829684627747   -0.45190862751434
H           3.14947927466405   -1.85818470323526    0.02804388342038
H           2.18540326995505   -1.21740565040913   -1.00146185169504
N          -0.14972488363131    0.29919595542191    2.01874242003510
H          -0.14290417024505    0.32923636463501    3.03208951746921
H           0.76659786824296    0.64817471803007    1.59215190075393
H          -0.36159349517051   -0.67235967346302    1.64615120485273
