    23
        -45.37694069  Gyration_radius:  2.37943566161 Dipole_moment: 2.232
 S           0.42529611097611    1.89216754369222    0.87089926016898
O           0.13824133205115    2.41227661203687   -0.43960740383590
O           1.12925303954085    0.60775857487558    0.80995401627348
O          -0.73594478817380    1.79865583568792    1.74912323398276
O           1.41261860114244    2.91102090793025    1.57768207370591
H           1.30314088994846    2.70123545411903    2.50008959807773
H          -1.56147473546321    0.57447687511782    1.22839613153646
O          -1.25929726496873    0.55265804452974   -1.71008384665222
H          -0.44316504632509    0.08182256680497   -1.95362888704437
H          -0.91671655454885    1.40885351482957   -1.37787332681272
O           0.10359615800801   -1.85471403739990    1.31739887886263
H           0.66179557484664   -1.05537530837189    1.31578897142934
H           0.41023328366582   -2.38005279642888    0.55274122106716
O           0.90496660709309   -2.85080379478084   -1.08749272649675
H           0.32783667733538   -3.17823093063749   -1.77871778969636
H           1.21394302814194   -1.97335905083398   -1.37486043807023
O           1.36112676614493   -0.21902733714308   -1.65758581371200
H           1.32830908997205    0.11308432218987   -0.72476085926638
H           1.94726177876114    0.37933922169517   -2.12313176224465
N          -1.89821895889398   -0.28698104863717    0.70842185806707
H          -1.78502164348467   -0.05357033346244   -0.32134757884936
H          -2.85609430068409   -0.51780343697144    0.94717260537020
H          -1.21168565508493   -1.06343141884166    0.97142259413884
