    23
        -45.36538870  Gyration_radius:  2.3364919142 Dipole_moment: 4.680
 S           0.45043519144853    0.12274057992584    1.06632293604591
O           0.79362033845059   -0.51537883506887   -0.21339281591699
O           0.57534509850021   -0.80712583875344    2.17716245760350
O          -0.90460224488516    0.67815633346706    0.98467005805133
O           1.45040447101811    1.26995430268592    1.31497157067787
H           1.38525427660291    1.95137145846575    0.57665068282093
H          -1.81563742317058   -0.54705210753589    1.41368603972574
O          -0.66875283635052   -2.72268657785040   -0.26319393049217
H          -0.07520755706916   -3.47351376096699   -0.20668985122403
H          -0.08864627932239   -1.93035599627711   -0.34860147814273
O          -1.11759251494092    0.68496335344054   -1.86922143515206
H          -0.58565748254416    0.18104149220842   -1.23482112459681
H          -1.54551070182070    1.36035898260917   -1.33844223281560
O           1.59078285467143    0.94960890527520   -2.39180396187733
H           0.68167486486016    0.94774208246798   -2.72971086267298
H           1.57516488764583    0.27586678172006   -1.69057887768591
O           1.45319738749656    2.91693956452632   -0.66341579960907
H           2.28451741510992    3.39518190518026   -0.64237764863431
H           1.52727638203989    2.25782389360003   -1.40847841236982
N          -1.81842928132691   -1.54228339638713    1.80067301030542
H          -2.61832919054046   -1.78601968038666    2.37393915030932
H          -0.88368201945846   -1.48025222827025    2.30170002603272
H          -1.64562564599154   -2.18708121351308    0.99095247957996
