    23
        -45.37078331  Gyration_radius:  2.26772518355 Dipole_moment: 2.642
 S          -1.27525986106612    1.17814850260150   -0.63297766012047
O           0.10509642064891    1.65513540921998   -0.70094322131278
O          -1.52366564244486    0.43569366630028    0.59003922820594
O          -1.66524631372254    0.46863679979505   -1.83179566006765
O          -2.18863262497584    2.46706067943557   -0.55555521867893
H          -2.25715109797524    2.70878283204614   -1.47336703259667
H          -0.74339947817484   -0.88355860954314   -2.17624043672742
O          -0.07593321074995   -1.60359998255658   -2.09216660108149
H           1.13276719739487   -0.81182434965135   -1.69585824677297
H          -0.31923281850997   -2.07290489390314   -1.27620200755758
O          -0.69380561829714   -2.04017098036088    0.54637003519377
H          -1.05986036679388   -1.12163861402932    0.58511488054210
H          -1.32071411817303   -2.59657468298147    1.01071401581658
O           1.82810102604484   -1.10311603786778    1.08577741374662
H           1.02477958862074   -1.65079907979514    1.02924538582190
H           1.54842109514920   -0.28481416631336    1.59848170014645
O           1.77993370086636   -0.15109633870982   -1.21149823674539
H           1.18674674521393    0.67077962058645   -1.04417595027614
H           1.92687099651082   -0.57956142093379   -0.22961047192999
N           0.80579109076389    1.10211929805705    2.09705758042356
H          -0.12354363785748    0.96480897751152    1.69978892076678
H           1.20719846696525    1.89232063186183    1.60671813266618
H           0.70073845056224    1.35617276923076    3.07108345053591
