    23
        -45.36860146  Gyration_radius:  2.27465796997 Dipole_moment: 3.517
 S          -1.13942560338939    1.52628932527823   -0.23014410862738
O           0.27373017609420    1.79470234161150   -0.03361544105359
O          -1.61668128645357    0.42483494331708    0.58022697748309
O          -1.46554635032290    1.37176616520860   -1.64748892910737
O          -1.93021818586438    2.80942956948501    0.24940591163070
H          -1.77701820886611    3.42156362395288   -0.46341412420548
H          -0.84716476435019    0.17848431844797   -2.26404250440527
O          -0.30466545969964   -0.68601884812739   -2.45106148594101
H           0.66044082856715   -0.43446638378281   -2.09404723587736
H          -0.66085416488029   -1.35361982105679   -1.72021491416745
O          -1.02357483912551   -1.96370857172303   -0.41730990545360
H          -0.17287696097004   -2.11966175115241    0.03675866873633
H          -1.41379875258821   -1.18117587153771    0.02938046254764
O           1.42992369860537   -1.81559500449677    0.76967198171787
H           1.15280157559940   -1.10818560425775    1.43434507641998
H           1.99865689698554   -2.43181117154580    1.23194613820759
O           1.76902275425100   -0.00211763092409   -1.23726540659541
H           1.34771732288380    0.76893870787205   -0.78818982280978
H           1.84170320029452   -0.69380345249554   -0.55125875874672
N           0.59935181232308    0.13712141430618    2.31384240681462
H          -0.31466233621740    0.25233669773099    1.87387617886674
H           1.12440284193752    0.96654019375474    2.06078615116154
H           0.46873580523435    0.13815681016376    3.31781268346720
