    23
        -45.37741928  Gyration_radius:  2.28357475016 Dipole_moment: 2.432
 S          -0.27664140864287    1.44995573064887   -1.14475888644909
O          -0.42323205160573    1.18992318133509    0.28348791358966
O          -1.52567684709098    1.71100728745566   -1.81918161555166
O           0.53972275723634    0.44791703756508   -1.79511497953427
O           0.55905060209753    2.81724896583968   -1.19986759047949
H           0.34818781239685    3.16207261668840   -2.06195192110199
H           1.48763909853386   -0.75320255300585   -1.14261322843366
O           1.99707528200583    0.76537467551892    1.21897457541166
H           1.11566043077276    0.99912485821171    0.84607927318681
H           2.58090227272380    1.48110633891163    0.96471167185919
O           1.86973100093109   -1.36349346183464   -0.46965911660021
H           0.51622300374961   -1.88106237282359    0.02149305964355
H           2.16517992819450   -0.75631225777138    0.23541855438775
O          -2.30012625743415   -0.67065560304957   -1.03968933386625
H          -3.03702112067315   -0.40520437972410   -0.48365343796606
H          -1.97604906617479    0.16414657394074   -1.44475496908947
O          -0.49589645654208   -0.35198650534939    2.47539888657015
H          -0.68758352360915    0.34028727665374    1.81579024836596
H           0.41493277801372   -0.18194888893876    2.73719655006432
N          -0.48156416562939   -2.04048559879639    0.40954490385322
H          -0.53103276311528   -1.54076303049348    1.33493800872383
H          -0.70271606741601   -3.02644484673442    0.49123439169700
H          -1.15676524874057   -1.55660503418910   -0.23302294829649
