    23
        -45.36480871  Gyration_radius:  2.34491954294 Dipole_moment: 3.666
 S           1.41505657009621   -0.10939316576353   -0.85107989503409
O           1.65413875478026    0.31605168671551   -2.19727815144412
O           0.54404235240779   -1.24867231684497   -0.72273575652297
O           0.82718160344095    1.05939768504171   -0.02094155686917
O           2.74069082378282   -0.36302768458458   -0.14006246350573
H           2.48891421375763   -0.59440947853740    0.82046046448385
H          -0.16180473765125    1.21648158953542   -0.28541475780474
O           1.99968155895501   -0.75126103748968    2.25725463717911
H           1.01302895859892   -0.56020610702876    2.30806626042554
H           2.43268909199453   -0.06409454323189    2.76888463029706
O          -1.57861779605421    1.26475203677396   -0.73266189709635
H          -1.92333540576732    0.40000420510178   -0.42629139326816
H          -1.45365029928101    1.17031979037019   -1.70337825687765
O          -0.75762084987630    0.81336044351766   -3.22953260118475
H          -0.64858070153665    1.50560569194121   -3.88468591670281
H           0.14673046516650    0.54665766759320   -2.96606115892050
O          -1.95988405809000   -1.29460604397756    0.04051936340382
H          -2.45397166189808   -1.91551660359137   -0.49758655662572
H          -1.01831766047797   -1.39183045538881   -0.23136735733627
N          -0.56693569422303   -0.08618528803363    2.44377787065883
H          -1.11414246261492   -0.67883045044475    1.82798876691594
H          -0.61232844915796    0.85412440345360    2.06928827927109
H          -1.01296462637204   -0.08872203516732    3.35283746651506
