    23
        -45.36949634  Gyration_radius:  2.2666684241 Dipole_moment: 3.790
 S           0.90785839370605    0.54759087434153    1.29129602691221
O           1.76028184405626    0.83815827673882    0.15015583761358
O           1.17337989554790   -0.77249261699833    1.84944799270564
O          -0.49800529771184    0.75786366346125    1.01315631283054
O           1.29765278358481    1.58333120795390    2.42212302734075
H           2.15317258288106    1.26253582699408    2.68805946044958
H          -1.00987119053228    0.76853184042730   -0.65146853331075
O           0.94557253711529   -0.99601925547654   -1.61911811339483
H           0.52320158807534   -1.98648207519919   -0.61239474395530
H           1.48419055624272   -0.36583394251900   -1.10167874443909
O          -1.12564031028171    0.65859570071237   -1.61442293173571
H           0.13400158934103   -0.47750503456703   -1.84501921171596
H          -0.69505051444877    1.44968634504271   -1.97580189767371
O           0.16526534752831   -2.44955228987659    0.26048044519240
H           0.62135652527027   -1.90424158933198    0.99182367577990
H          -0.88984301574604   -2.12826248175408    0.31933826603937
O           0.67017334776068    2.72189118157756   -1.45677547794442
H           1.16602481582512    2.08357333683335   -0.90971359288389
H           0.52464984389534    3.49028463405766   -0.90349249646912
N          -2.13349241897124   -1.44440626219119    0.40875426785936
H          -1.81702326533956   -0.58474053721329    0.86337560016747
H          -2.88406212222898   -1.85918316744251    0.94446481543510
H          -2.47379350555170   -1.19332362561566   -0.51258999477934
