    23
        -45.36638244  Gyration_radius:  2.37525958729 Dipole_moment: 7.406
 S          -0.89436555938211    0.56966988137428   -0.51991068948979
O           0.09953089704639    1.48031499225188    0.01635427325387
O          -0.42919479392493   -0.24740708509785   -1.59837378398105
O          -2.13033964291784    1.36230273709342   -0.95041703979824
O          -1.42010657317515   -0.29579273941255    0.62895613675256
H          -0.68065163541445   -1.01446348504883    0.92638768083805
H          -2.33799844884359    1.93862149870452   -0.12797217165029
O           2.23104971872938   -1.04461428305987   -1.91250544127801
H           2.52473779812518   -0.69688799116817   -1.05972639448938
H           1.39143674561774   -0.59771400137535   -2.09200519025262
O           0.46878083677819   -2.95874682025741   -1.19678683553076
H           1.28125996309834   -2.52303242230663   -1.53073804805066
H          -0.24572114614001   -2.44448344352595   -1.58808415283561
O           0.40401010982950   -1.88202969009935    1.18355075873739
H           1.19318384234887   -1.31099410113857    1.13702125664212
H           0.43278650021660   -2.44609401880181    0.35773287963445
O           2.23570059381482    0.08484914161986    0.67436920912942
H           1.50024311217590    0.68355632205533    0.41189046029478
H           2.83932154880962    0.60432775543457    1.20808796610924
N          -2.20481223779850    2.61240294350741    1.27954417497285
H          -2.55424909959584    1.99365470256130    1.99919219505882
H          -2.51426863936993    3.55609151379416    1.47052850138776
H          -1.19033390042277    2.57646856306560    1.28290424513967
