    23
        -45.35325246  Gyration_radius:  2.39212730089 Dipole_moment: 1.726
 S          -0.17944810718891    1.03124075912241    1.59922005988713
O           1.15905869395163    0.66539755012875    1.21473580839399
O          -1.23226536722927    0.26272069677028    1.02376746369360
O          -0.40945902556439    2.51552428154485    1.38426257826133
O          -0.26758193815151    0.89065135111290    3.15901815328925
H           0.51551135047886    1.28435874743295    3.53938621673524
H          -0.91402354563711    2.60208768905149    0.43683249771883
O          -0.76826416667821   -2.34585164204074    0.10665039886930
H          -1.13894107771883   -1.53225810946875    0.47307633493803
H           0.08206401496499   -2.46164725204869    0.56173032169152
O          -1.48700357045393    2.37622139659835   -0.82531973302580
H          -2.08572502817670    1.63987816651734   -0.65744159710173
H          -0.66649970631650    1.96560623196810   -1.25730829599267
O           0.64648292527186    1.13313126317633   -1.49309873764923
H           0.41134271057150    0.24258531123109   -1.89081314822530
H           1.04072472525264    0.94985800203210   -0.63172359952512
O           1.74969947496404   -1.99411391814571    1.23015122003718
H           1.60400841741397   -1.03406263088426    1.26497196699702
H           2.50955474897581   -2.13208065248590    0.66140833324442
N          -0.05295710301835   -1.25844469750295   -2.42034422015385
H          -0.83945978326583   -1.24201006004126   -3.05704384169567
H          -0.35386630424730   -1.74786946473064   -1.57016657994594
H           0.67704767181689   -1.81092301928300   -2.85195158035618
