    23
        -45.36840966  Gyration_radius:  2.28692347641 Dipole_moment: 5.669
 S           0.53274817495744   -0.60637942153081    1.29520051405422
O           0.95718869779201    0.50814538440049    0.41619052140910
O           0.80645021038936   -1.88302427448736    0.65958537993441
O          -0.85252859281003   -0.44356008529580    1.67234619961149
O           1.42643412190841   -0.53786452917446    2.57141006928279
H           1.33060871447715    0.38638921382042    2.86624480670864
H          -2.00819802734700   -0.83748324135309    0.50243260237953
O          -1.25670651826814    1.56898466035149   -0.67624810478774
H          -1.69328150884100    2.10657432197725   -0.01248714477959
H          -0.45236747164425    1.21998592521235   -0.23931984241453
O           1.24636559085656    2.11600983152245    2.47242594178443
H           1.13622799402895    1.73133323355108    1.57962193981829
H           2.08991106223996    2.57361297958207    2.47550668472988
O          -2.39699151573171   -0.86438964472165   -0.40281602329727
H          -1.41260434836696   -1.72479414009062   -1.09946414694584
H          -2.23499789669755    0.04294199334626   -0.73029990907238
O          -0.52419377262934   -2.15861206842792   -1.45173315422990
H          -0.01021479284922   -1.34168052658108   -1.96581845004473
H           0.03476304641440   -2.23394291574613   -0.59725617713931
N           0.69554133465120   -0.13801872919007   -2.32440355424551
H           0.06723868796240    0.59264320279382   -2.63753009389191
H           1.46964703018088   -0.21349086010615   -2.97053677069335
H           1.04895976942943    0.13661970003915   -1.40305127809315
