    23
        -45.35188960  Gyration_radius:  2.45039379295 Dipole_moment: 1.064
 S          -1.63837173191495    0.81326827410884    0.63046123279594
O          -0.93229516514434    1.22893353500336   -0.55314115938512
O          -2.84919892379832    0.09422113598609    0.40358347721872
O          -1.96358293411672    2.13323563170522    1.44044698495240
O          -0.75774844440202    0.06099945697145    1.58732371362781
H           0.16928227022740    0.56985013971093    1.75529814860785
H          -2.23858515778636    2.80244964737292    0.81852487348867
O           1.41410035316733    1.20043039432273    1.89449357153001
H           2.05847323958998    0.53080190815958    2.13750011741380
H           1.63987173321412    1.48651963830267    0.93343485555616
O          -0.26100922662793   -1.40082847594296   -1.24108557149981
H          -0.57898978887720   -0.49444602336258   -1.16325539264292
H          -0.89971453312555   -1.96007544789767   -0.76506100866408
O           1.79059442497117    1.69154815523761   -0.56574363222719
H           0.85376139464411    1.67541319714920   -0.81315755211197
H           2.16121789986266    0.82512166099755   -0.88923264738861
O          -2.37899542537900   -2.55638546693122    0.08994255831702
H          -2.64645269131306   -1.65558613288979    0.33967028204972
H          -3.07292710481548   -2.89422589209958   -0.48014767661741
N           2.53950008643034   -0.77551782675309   -1.29533488803244
H           3.11596135935936   -1.38200419942561   -0.72530385473357
H           2.88311019874005   -0.83513584820719   -2.24586190197858
H           1.59199814711057   -1.15858747150833   -1.29335451028366
