    23
        -45.35188954  Gyration_radius:  2.45015540058 Dipole_moment: 1.057
 S          -0.50047131131910    0.03370251791294   -1.86740484841787
O          -0.92140639434386   -1.19894842776154   -2.44872057947153
O          -1.32846239992300    0.53160975251171   -0.80032288083579
O          -0.49055296055098    1.15601261327406   -2.98306185804543
O           0.94882621201115   -0.04197568513492   -1.47896067534553
H           1.28276743163795    0.86557435452979   -1.01928188191761
H          -1.37646086235633    1.50050345395132   -3.06501839168435
O           0.05264131164326   -3.32286558085912   -1.07584308701262
H          -0.57686063558731   -4.03794695512091   -1.19020566518927
H          -0.20722724530138   -2.62825616835941   -1.70457085774578
O          -0.58358117440588   -1.54162625506795    0.92786936204704
H          -1.00752247790698   -0.89438146937107    0.35341184448273
H          -0.24920797357894   -2.24882754957379    0.34881157020035
O          -0.35716364541955    2.21643497168141    1.16097096131710
H          -0.12446674432387    1.58761017525589    1.89792407539822
H          -0.95263971913541    1.71873007518638    0.58058556667029
O           1.68074447794964    2.02450682527615   -0.33738412485242
H           0.88130846753473    2.21832319638108    0.27896703616557
H           2.41591288485148    1.79249322645329    0.23557031233933
N           0.33115265838584    0.31338812695814    2.91713622371296
H           0.07455400054364   -0.46523829752346    2.30693683801800
H          -0.27158891041811    0.26680859511724    3.72927552101910
H           1.27970501002137    0.15436853428229    3.23331553914446
