    23
        -45.38060392  Gyration_radius:  2.25722793639 Dipole_moment: 4.453
 S          -1.51626519325120    0.72450187658122    0.88491610088787
O          -1.44752772889948    1.09821365195279   -0.51675237399137
O          -0.19036641607905    0.78531465724042    1.50719442282027
O          -2.19338416673350   -0.52586272817139    1.13058320935915
O          -2.38474088810308    1.83199062311136    1.61848362626617
H          -3.14907547089638    1.32307921808189    1.86556938799980
H          -1.38921322545525   -1.85995984109216    0.39305997470682
O          -0.73169184937372   -2.41894195901496   -0.06682624278082
H          -0.60897226707049   -1.55411111676349   -1.52759603313590
H           0.08927357056768   -2.30454398534759    0.42907355969008
O          -0.43971950862310   -0.77322378393961   -2.10959945845041
H          -0.96109127821769   -0.05584468795485   -1.69124543769670
H           0.94004751389149   -0.35601376219954   -1.71140507718501
O           0.91923486097470    2.31606503093291   -0.30980492770544
H           0.06710599951831    2.32518578802788   -0.77138072816200
H           0.66598903969872    1.93000656090297    0.55450996464938
O           1.48256481549136   -1.17328982413821    1.21009018756205
H           1.94238862023492   -1.31662074293816    2.03844559225513
H           0.81664170541026   -0.45744765218009    1.38703776562289
N           1.84509421333391    0.01709178609473   -1.21848211717696
H           1.61891814680703    1.01650907997388   -0.92718752224984
H           2.66126641376151   -0.03511809245456   -1.81654308191780
H           1.96352312300220   -0.53698009671535   -0.35214078137898
