    23
        -45.36638045  Gyration_radius:  2.27705285768 Dipole_moment: 3.975
 S           0.94103768950286    0.16736134543666   -1.15976522286579
O           1.37648315176449    1.54216380855975   -1.23964489777777
O          -0.43934543231779   -0.00990243160914   -1.61693070209831
O           1.14476840204495   -0.43618262144967    0.14408168660212
O           1.84335941317124   -0.64980623459212   -2.17331228499725
H           1.95499469790144   -0.02687263647269   -2.88432450916794
H          -0.10758224274969   -1.00372133405500    1.34054782892396
O          -1.04675332011937   -1.14856593433044    1.55694647867586
H          -1.32838885797033   -1.83195016854720    0.89088857861924
H          -1.58460369006941    0.04488367953978    0.97790143779186
O          -0.04689694158325    2.60083757706857    0.72318266144896
H           0.47739453825575    2.42836013435431   -0.08888395805593
H           0.53497262799892    2.28186357110255    1.44848396731366
O           1.81916688607610    1.27626044204520    2.08408070912425
H           1.67983060759096    0.56871605012969    1.42371778027670
H           2.70680495679267    1.60813909089651    1.94047785721075
O          -1.80417114439731    0.87192617446382    0.32232194334822
H          -1.16373252898052    1.67442040108745    0.58668245983121
H          -1.40799040570690    0.55197045792078   -0.55861447876581
N          -1.41671181504489   -2.56578209915087   -0.66323316360762
H          -2.30430272793490   -2.83417073771485   -1.06903746515671
H          -0.77233022715923   -3.33592341268134   -0.79020603121811
H          -1.05600364704434   -1.77402512204574   -1.19536067550367
