    23
        -45.36479111  Gyration_radius:  2.36892644455 Dipole_moment: 5.023
 S          -0.83799015085447   -0.07930455556463    1.13836640812125
O          -0.72039731256145    1.07877304871510    2.01175402378294
O           0.26018721496846   -1.00631128104446    1.26453291479623
O          -0.99981119261400    0.36381704677185   -0.26698252021798
O          -2.15381829097288   -0.84568072514651    1.49084400444852
H          -2.84229778956513   -0.14882268307592    1.43910772997627
H           0.18556124827154    0.99516602872674   -0.73226213648387
O          -3.20143568040332    1.54374100460952    1.10497688344534
H          -2.91917020325972    1.58463071523286    0.18563309686064
H          -2.40644043073024    1.75103257729020    1.62416263634522
O           1.86528340736262    1.21256149924639    1.48786968628219
H           1.96488006348930    0.25761904757684    1.59564840481269
H           0.97939288284545    1.38986666791133    1.87170204666062
O           1.15089164797803    1.38637993287298   -0.94102093488213
H           1.63693490628003    0.63941403964220   -1.48935267763620
H           1.58251568213223    1.41601834206291   -0.00247321326708
O           2.15629431792945   -0.53218351400073   -2.22789540941867
H           1.53177266521669   -1.25844897460369   -1.88363524144649
H           2.01192316082603   -0.46427941931660   -3.17351651516514
N           0.39164757659947   -2.19890578959259   -1.27540240053837
H           0.51789005948629   -3.20335290206438   -1.26787029327013
H          -0.52762314546658   -1.99996149044209   -1.65191707259513
H           0.37380937311754   -1.88176861591360   -0.30226942065570
