    23
        -45.37195919  Gyration_radius:  2.26495715423 Dipole_moment: 3.964
 S          -0.06835302060164   -0.21314035199484    1.76585083396769
O           0.56304308880231   -1.50930845148476    1.63336415348954
O          -1.38742681012418   -0.17599935599747    1.14545932939057
O           0.76520730965635    0.89013537038454    1.31802860100264
O          -0.28511156072839    0.01648244274953    3.31817150149185
H          -0.51297327506040   -0.85412109878729    3.62864184007513
H           0.57829211882687    1.56496523230878   -0.04853198903560
O           1.22630614081266   -0.33178518178233   -1.99281738110277
H           1.92510230337617   -0.57010577457901   -1.33451823741854
H           0.47091607223548   -0.92325603584648   -1.76835350605228
O          -0.71460384202723   -1.77624083224307   -0.86686427193446
H          -0.22497111176761   -2.47262045428135   -0.42023208123628
H          -1.06167182542456   -1.22314107489219   -0.13930304824698
O           2.67811861152267   -0.82898173652954    0.16685987437998
H           1.97347440351044   -1.21116410858211    0.72838726863331
H           2.86353685850183    0.02638440178487    0.56332209019902
O           0.40052425293027    1.80112370455475   -1.02027382286261
H           0.79657844956340    0.95179096637057   -1.54306295824024
H          -0.67023389753781    1.71447796781725   -1.11550182030048
N          -2.09070218989411    1.38109003033404   -1.05815104500961
H          -2.38475043883871    0.75649854296592   -1.79844842892314
H          -2.75838180093023    2.13644503786295   -0.98029337917022
H          -2.08191981664762    0.85047074988763   -0.18173351275150
