    23
        -45.37245067  Gyration_radius:  2.30091119649 Dipole_moment: 5.500
 S           0.02543808638288   -1.23346813665148   -1.19564070134227
O          -0.44403114436200   -1.41370113508335    0.18590143120376
O           1.13108127138257   -2.08994425420706   -1.51706341529574
O           0.53108985018599    0.27611156179809   -1.26291427325438
O          -1.09442803291607   -1.24872472771031   -2.12908236075770
H          -1.71985485071153    0.05966624922661   -1.91606434658097
H           1.48444338455316    0.23898097345095   -0.98610134156059
O          -1.95798767608606    0.59617846483416    0.92781180241243
H          -1.25959911940316    1.13146294062023    1.35893897355543
H          -1.51526784987045   -0.26735424677428    0.75179214253687
O           0.24816776640696    1.66327781132704    2.07158226581605
H           0.31270367959175    1.94120197398732    2.98653330183064
H           0.78139099689400    0.85049532894062    1.98914054423773
O           1.43172660627277   -0.81912357354849    1.85537882225952
H           1.48448887488128   -1.50627903562738    2.52178642412970
H           0.71573940569108   -1.10629751996100    1.22586124781815
O           2.89805112191805   -0.40078370658885   -0.45377435722776
H           2.60957369085650   -1.22090012192156   -0.89334754599727
H           2.68350308868153   -0.51511229548664    0.48568392092771
N          -2.03988206208863    1.05799485272920   -1.60551304120418
H          -2.92130398957219    1.32757096666158   -2.02956861044620
H          -1.28797474524045    1.69574289790357   -1.85435262202678
H          -2.09706833345211    0.98300473207306   -0.51698825103057
