    23
        -45.37878041  Gyration_radius:  2.32954815524 Dipole_moment: 5.072
 S          -0.57798218216692    0.86310891962490    0.98067900357049
O          -1.64470447115963    1.72656907236895    0.54471147272115
O           0.63921805623368    1.06014249138589    0.18102055560478
O          -0.95620914819243   -0.56379515252553    0.93159876207999
O          -0.23220051767435    1.19780014960049    2.45255804449425
H           0.22960245687641    0.38071427804499    2.78519700177615
H          -1.20362404610087   -0.93811755999522   -0.52413545003372
O          -2.31742221140072    1.38219565213589   -1.94844370557354
H          -1.81908079119393    2.05286768796317   -2.41997039855118
H          -2.18931907520588    1.58637109635600   -0.98713221974018
O           2.64546777969226   -0.46404819563991    0.89496605462331
H           1.92461811988959    0.16107638092944    0.64014829744409
H           3.37988907040642    0.08124026545835    1.18130088132179
O           1.31670082444738   -0.39762299821270   -1.92435300350957
H           1.11741116215257    0.29878738531525   -1.25948196225063
H           2.00281493086287   -0.93140733414836   -1.51307950136094
O           0.84878773312024   -1.12631843952812    2.82401893503484
H           0.12226331541396   -1.37336680741899    2.23082210767118
H           1.64102521680665   -1.07983824813287    2.25376618253198
N          -1.23915851085679   -1.00306922317835   -1.59438613758800
H          -1.74250480008276   -0.12567954905347   -1.90376868237465
H          -1.70731804168800   -1.84427227965449   -1.91247655386166
H          -0.23827486055339   -0.94333760257613   -1.91355966165966
