    23
        -45.34987009  Gyration_radius:  2.33826768319 Dipole_moment: 5.130
 S           0.33383140946927   -1.84522160139405   -0.26454620930700
O          -1.07357344574848   -1.86833035235528   -0.49276898310344
O           0.77234634712985   -1.55593366069503    1.07323750678402
O           1.02648741395517   -0.91735549008454   -1.24417001961525
O           0.90855131911425   -3.25637644854204   -0.65141577507496
H           1.83581651760316   -3.25880015008161   -0.42275371461265
H           0.29653759370388   -0.21831148520064   -1.61186954407564
O           1.40894155888323    1.05605450049140    1.09155441546410
H           2.18965030675747    1.20615332545631    1.62744531622220
H           1.20648398731876    0.10330022332819    1.14162357558817
O          -1.09519446220353    1.88528943976660    0.26112257591809
H          -0.18815233515770    1.94380983034355    0.59357202908218
H          -1.53288955363601    1.21510961435238    0.84321465658539
O          -0.80053652227120    0.59110668383007   -1.92201384631640
H          -0.94481234888005    1.19399747938266   -1.10617516522459
H          -1.52466714662671   -0.04311442848581   -1.90736519502028
O           1.98856359212388    2.07110227928325   -1.54935746209241
H           1.82579927213274    1.69229773643179   -0.67610009060594
H           1.20695898247942    1.88742996632613   -2.07391401697461
N          -1.93958557486160   -0.21241488447950    1.72225634078341
H          -1.21587080116759   -0.41351485687551    2.40182810090275
H          -1.84869126933891   -0.91365479742770    0.99200014382896
H          -2.83599486082094   -0.34262293346920    2.17459536086633
