    23
        -45.36542592  Gyration_radius:  2.34287999806 Dipole_moment: 4.544
 S           1.23634414254380   -0.47655929132355   -0.16399395745082
O           1.01877358072560    0.57422721457198    0.81578896792948
O           0.57385302947331   -0.17209933524304   -1.43322712107361
O           0.80308427588110   -1.77737243111523    0.34636393062964
O           2.76616280217377   -0.54641142909580   -0.42781078848912
H           2.83425858311022   -1.11911156044012   -1.22040589289338
H          -0.54599601889944   -1.81413541907812    0.83123513260924
O           2.26012806850823   -1.71673426432143   -2.73022055441860
H           2.58549209701549   -1.30215228825347   -3.53267431928254
H           1.44906044723848   -1.23451036098293   -2.47409217198612
O          -0.69999064653705    0.23185931919056    2.77449732715739
H          -1.19664926523827    1.05299531449579    2.77006129497065
H           0.07287815646231    0.37327753492909    2.17720241490994
O          -1.52092220708499   -1.56466679995493    1.15757550968710
H          -1.85225177763517   -0.92621416108036    0.36801881744574
H          -1.33167614431020   -0.94383748334133    1.94267336781947
O          -1.95460243841951    0.04640304232863   -0.69304119058577
H          -1.89001993838809    0.95823737554326   -0.31959951063748
H          -1.09379421923569   -0.07361132085639   -1.15313089416910
N          -1.09335284885539    2.42655600137982    0.22621273593569
H          -1.24658190440722    3.11087119317772    0.95735768112792
H          -0.96494101248216    2.94138115905389   -0.63678548938020
H          -0.20925677149452    1.95160798082229    0.41799472020967
