    23
        -45.35533140  Gyration_radius:  2.29737807726 Dipole_moment: 3.479
 S           0.08639074991188    1.04780490003991   -0.16156321888041
O          -0.51441240767157   -0.08995780846983    0.50399566078475
O          -0.82947760256294    1.98762803900129   -0.70423524032748
O           0.98903848169126    0.49122053632416   -1.31393513912713
O           1.11982257538150    1.67468283165137    0.76366392066868
H           1.58203710747885    0.88137413205105    1.22816299149293
H           0.36136984884485    0.25610263279084   -2.06398787901484
O          -0.98689003973603   -0.16492873428681   -2.79024721671101
H          -1.59021110866644    0.50108393376029   -2.44559333334400
H          -1.16898084375891   -1.00788599404757   -2.33273454277929
O          -1.00475077130328   -2.19658375384972   -0.95352978664222
H          -1.68583828434647   -2.76816119535046   -0.59435956076520
H          -0.89370817238793   -1.45278559591987   -0.31902444374440
O           1.81712367471976   -2.01661187264042   -0.37819140113178
H           1.96618034341681   -1.29690344248084   -1.00157031926708
H           0.93108409960530   -2.35146170350646   -0.57803020603471
O           1.97823914006523   -0.46699665479640    1.80196611346530
H           2.01630870914643   -1.11057949716695    1.05196544650433
H           1.21993437858709   -0.72691540275333    2.33261096508492
N          -1.50745094445952    2.22324636366806    2.22698474992876
H          -1.89845394704184    2.74295878120771    1.45008356538484
H          -1.41852033750159    1.26565153497716    1.91093982160157
H          -0.56883465942957    2.57801794979480    2.36662904286490
