    23
        -45.34945024  Gyration_radius:  2.36695119694 Dipole_moment: 4.034
 S          -1.66043795406955    0.61185486289443   -0.70074950379750
O          -1.33507951432742    1.24322637671910    0.53265108455975
O          -1.59183239567875   -0.81744080419016   -0.74304424341390
O          -0.84968561633065    1.21809000803494   -1.85778237306934
O          -3.11274995904770    1.03732895398299   -1.10879183621792
H          -3.36028430040834    0.45859117836221   -1.82599243315628
H           0.14935659060347    1.14626622327050   -1.63480152475607
O           0.34822072633043    0.04557871653510    2.55213919519912
H          -0.49901793854270    0.36780841845569    2.22505076469549
H           0.44688830434811   -0.85311691349873    2.15301049120936
O           1.56975846300022    1.03338200499331   -1.18982530370089
H           2.16291954138428    1.60183057473133   -1.68653769844813
H           1.56571350327778    1.38824022585049   -0.23203992898706
O           1.37520571537848    2.00637425940750    1.15745251489377
H           1.20164643151482    1.24186313496516    1.77051299075089
H           0.51860717966104    2.44207391579664    1.10262564666869
O           0.93815656456595   -1.73393011739341   -1.63642624356558
H           0.00806110899074   -1.55601989894495   -1.44665186865915
H           1.39226303492463   -0.89077445338665   -1.53306373902975
N           0.25116379399473   -2.30078656878438    1.21376695870079
H           0.17614516556513   -3.20519456237994    1.66250975631625
H           0.93858600832267   -2.38110200010935    0.46997832625228
H          -0.63360448346472   -2.10414353530821    0.75600898756058
