    23
        -45.34847679  Gyration_radius:  2.50057758192 Dipole_moment: 2.957
 S           1.76428577836184    0.72475948488060    0.42168244080527
O           1.04144415347964    0.32295334413655    1.59914672470545
O           1.04342208716722    0.73072266446489   -0.80158230573657
O           3.06019252345850   -0.08364832556593    0.31981981868442
O           2.32170491321494    2.16571372679082    0.68363952776952
H           2.63187658360402    2.18309543732473    1.58663413006408
H           2.83422075384626   -1.03688248300623   -0.02712286285345
O          -1.68390615472176    0.96175753203316    1.27788924737930
H          -0.78310518259929    0.89152288289508    1.61159032421449
H          -1.76417523185675    0.24880707637545    0.62726291815919
O           0.05001920424761   -2.09788973723654    0.74118795409037
H          -0.60024213438067   -1.80071679146159    0.07814475249305
H           0.25882053262149   -1.31268803549999    1.27031689246774
O          -1.34569907980216   -0.64511898493708   -1.07125948682632
H          -0.52555601908283   -0.14843372875508   -1.20957889909219
H          -2.06084843870225   -0.04398040938988   -1.36862923396162
O           2.35379805410325   -2.37695898314263   -0.38369188350534
H           1.41542872044860   -2.37967106765878   -0.01767864467024
H           2.83172014820068   -3.06489594319989    0.08624552778743
N          -3.09336771392086    1.45160114795446   -1.41524158433235
H          -2.78171829128203    2.17492299610487   -2.05108105822480
H          -2.86755634891833    1.75067801171532   -0.47120245848631
H          -4.10075885754251    1.38435018535503   -1.48649185089994
