    23
        -45.36692933  Gyration_radius:  2.38587265906 Dipole_moment: 2.506
 S          -0.89146491693909   -0.35654816009046   -0.06859443530247
O          -0.32682248422074   -1.43080483744477   -0.86452277299699
O          -1.28152528839215    0.79644128778875   -0.82241746289706
O           0.11499013931478    0.01894005191166    1.01545985489412
O          -2.10019768252493   -0.87709171842012    0.71074601629366
H          -1.83485806547310   -1.69756695745272    1.24853861922737
H           0.89235748047637    0.68474597662935    0.60474599689948
O           1.07469135982472    0.32919409293939   -2.33899663365872
H           0.32579596774849    0.86895292315561   -2.60744431615601
H           0.67562917705133   -0.48015749612333   -1.97577699598186
O          -1.32841164093991   -2.98348147699047    1.93131393914241
H          -0.36041913173629   -2.98151218687542    1.71030690965537
H          -1.70386006773778   -3.75115832968990    1.49373009333611
O           1.76238993745367    1.49656090953357   -0.05253988160615
H           1.21813310928596    2.33512694070550   -0.12128998864399
H           1.74456746325193    1.10436296063118   -0.95866369283636
O           1.10909906137375   -2.68988939352997    0.99154762525097
H           1.51657233048358   -1.93977860118174    1.43292251210673
H           0.71219422167265   -2.33125190637334    0.17331965351411
N          -0.07773698966643    3.37424067116679   -0.33964755479862
H          -0.09962316184112    4.03516670811206   -1.10587924739292
H          -0.40462085271224    3.85106428388470    0.49084641254975
H          -0.73687996570527    2.62444424773790   -0.54770464062062
