    23
        -45.38014043  Gyration_radius:  2.2844739081 Dipole_moment: 4.859
 S          -1.19564701448238    1.37537796258470   -0.45337109294642
O          -1.80116346689877    0.41435841215464   -1.35765951643288
O           0.20946062714634    1.61000755412327   -0.77111756660659
O          -1.41509182204821    1.03814184589204    0.93912092386318
O          -1.91504838100704    2.76259832774219   -0.69761942564341
H          -2.78902605042225    2.60130998880026   -0.35744545499188
H          -1.05341441838083   -0.62226618350750    1.30035756335677
O           1.11703593328666    1.64335882029569    1.76780634345115
H           0.99164655222001    1.85318976672234    0.82747898109074
H           0.21423397163719    1.50240255391355    2.07992660555792
O          -0.76832037062728   -1.94562342304332   -1.46423512200768
H          -1.21980823106956   -1.05832188227364   -1.45209633703043
H          -1.25407044984171   -2.48218857090130   -2.09215903387484
O          -0.68609775462353   -1.52500328994259    1.35605062686227
H           0.99915218998986   -1.28795778736593    1.65627217492896
H          -0.83689712167744   -1.92419432546383    0.49017092959133
O           1.89133735814322   -0.89963026146207    1.49684873600235
H           1.79278437541044    0.04473233732230    1.76261824066635
H           1.82746189899201   -0.80701152638349    0.02240346026997
N           1.56638557974976   -0.63084209526400   -1.03555870931089
H           1.09444594161286    0.31184358279298   -1.05198365994792
H           0.85312017361424   -1.32449224557011   -1.32277227862924
H           2.37752045929970   -0.64978958115546   -1.64303636819986
