    23
        -45.37796042  Gyration_radius:  2.34655852925 Dipole_moment: 4.999
 S           1.27519031111088   -0.39677756424039   -0.41158470188604
O           1.56453499182629   -0.09864556274239   -1.79058782279686
O           0.14656437056867   -1.32131718456853   -0.26983849528598
O           0.99711876139069    0.82948762374742    0.36800286965159
O           2.51896120612551   -1.06693260400947    0.22473964148468
H           2.36662849249019   -0.96186467220950    1.20137846660659
H          -0.24208253607540    1.49637570242315   -0.19444540066179
O          -0.61666367272328   -1.84489479159762    2.17555685958953
H          -0.58544557953073   -2.79192395503819    2.32011839551232
H          -0.32687379685248   -1.70289182155341    1.24179522151246
O          -2.36147910101310   -0.50104916496146   -0.06017891922594
H          -2.46575058918618   -0.70478882014339    0.87427267765696
H          -1.51512473982403   -0.93234414471682   -0.31232035662779
O          -0.16771425937271    1.33021942146659   -3.11889341464016
H           0.47937317669533    0.69945672912355   -2.71384802706177
H           0.35528691040545    1.91072790397411   -3.67479281244307
O           1.68826253909712   -0.46116562409233    2.60776952140249
H           0.86434535385490   -0.97448068353250    2.71872784741964
H           1.42520685205628    0.33395691379457    2.11873185838539
N          -1.15278014555817    1.76537547460406   -0.69769631907721
H          -0.91995225110572    1.72949163767419   -1.72335925284963
H          -1.49817929483180    2.67549974905592   -0.41399649259451
H          -1.82942700950727    0.98848544754921   -0.46955137411744
