    23
        -45.36669923  Gyration_radius:  2.29162355159 Dipole_moment: 4.994
 S          -1.42803433697161    0.32108383574400   -0.42956665492042
O          -1.97197145316602    1.59438011499128   -0.09394426081795
O          -0.94260797795012   -0.45222405723683    0.69992893958980
O          -0.26581515570808    0.46438600440626   -1.43455699542580
O          -2.44285829257346   -0.51240083367556   -1.20706905265960
H          -2.10971487444739   -1.47515221192151   -1.15059155928367
H           0.56663380644927    0.94874940230759   -0.98924292844228
O           1.66714568079203    1.46280683940029   -0.22625668055383
H           1.97015166726271    0.66540951945126    0.24016979669872
H           1.19419389464665    2.02569400778428    0.45648688581638
O           1.04694299672228   -2.02954849878256   -1.57118382481443
H           0.78415939131447   -1.18580455308078   -1.95910496566964
H           1.49247801634631   -1.80596578789189   -0.73888308692053
O          -1.37784734111777   -2.77524031790422   -0.79876016833254
H          -0.46959485726753   -2.66878816642847   -1.17998659225998
H          -1.28430826081841   -2.62752479275212    0.14803935339175
O           1.60471020800903   -0.99843163759815    0.96602154073767
H           1.79521603607738   -1.38802058694567    1.82040924656123
H           0.63639792515465   -0.80921479381591    0.94790100092377
N           0.10981125574671    2.71520016469998    1.49770700312161
H           0.11980317227602    3.72684747714216    1.53765683686901
H           0.05081683609953    2.37025592821350    2.44765144617484
H          -0.74570833689433    2.43350291394886    1.01717470023924
