    23
        -45.36288403  Gyration_radius:  2.40820838594 Dipole_moment: 7.422
 S          -0.07028604399001    1.13013038163166    0.29153296685078
O           0.55578389502287    0.54489742604988    1.43517748852248
O          -1.37671802793227    0.61722499096923   -0.03604635036355
O           0.84539703100519    0.95872363997553   -0.95352077383507
O          -0.12739541670908    2.64904719269161    0.43022060835728
H          -0.75659346382701    2.95156220056478   -0.33626313950697
H           1.10357704457993   -0.01382894790656   -1.06432680940091
O           1.49821095424527   -1.50917194011375   -1.09926631602068
H           2.24022279003197   -1.68279567662867   -1.68204673447581
H           1.84530938976196   -1.63811421819327   -0.15060865107843
O           2.27222076363002   -1.62905469299702    1.33985587274134
H           2.10447463754396   -0.70345061781265    1.56333391505096
H           1.51870313310420   -2.09650382060000    1.77619036982488
O          -0.12662265352962   -2.20745527276567    2.29988276440295
H          -0.21627073587958   -1.26267918450547    2.46364763732473
H          -0.61364263009887   -2.36829786326839    1.46612277238143
O          -1.15576700897366   -2.10586902503583   -0.21155982965342
H          -0.34138943103092   -2.13546202848305   -0.72714923731490
H          -1.40946663372557   -1.16994303521043   -0.16604959573243
N          -1.77119788566768    2.98148093241097   -1.48702992364901
H          -2.09748938515929    2.03466922129013   -1.31115104947318
H          -1.37179580344715    3.03035262354444   -2.41457027862497
H          -2.54926453902278    3.62453772431548   -1.42637570639482
