    23
        -45.37951578  Gyration_radius:  2.3140800862 Dipole_moment: 2.206
 S           0.54422610949065   -1.29098314799049    1.21082757448685
O           1.61927405250230   -0.32147891194910    1.00204371651726
O           0.28748915608395   -2.09912999405627    0.04716869330732
O          -0.63924931841574   -0.63344001279560    1.74925739230753
O           1.04756229553824   -2.27530447086542    2.34390448451028
H           1.08088506175462   -1.71156618285574    3.10994438359913
H          -1.00332600614592    0.71418380770388    1.03810310460617
O          -1.99582555237903   -1.57618543159355   -1.18484237733656
H          -1.19630409491205   -1.79883616799389   -0.66013794556807
H          -2.24866681095097   -2.38233667758159   -1.63690039506575
O          -1.07337976403301    0.81125115047516   -1.97180382772499
H          -1.55105896099541   -0.03527876753683   -1.85386099426019
H          -0.12521007004760    0.55790230475529   -2.01478814645983
O           1.42665680739319   -0.14272148616069   -1.64892845384988
H           1.33648905482610   -1.06100208040924   -1.91587228430204
H           1.58421595853463   -0.19337305182295   -0.68522181753872
O           1.50509880482550    2.31582746059118    0.75890264426841
H           1.94911936534942    2.45593327835644   -0.08095496342663
H           1.66880883379198    1.37390505069902    0.98182610201176
N          -1.06581055060369    1.62465823720908    0.49877131249843
H          -1.84178656411034    2.18788947153552    0.82729090066011
H          -1.16439980859277    1.37244527316188   -0.54624152510382
H          -0.14480797890365    2.10764035912375    0.63151244186353
