    23
        -45.36689976  Gyration_radius:  2.47799204692 Dipole_moment: 3.504
 S           1.99466902507653    0.10166116871965   -0.15684410910593
O           1.61697400779183   -0.11986096964804    1.24176332147400
O           1.49124256911536    1.37531714319801   -0.63283275477197
O           1.63231557356126   -1.01938180591575   -1.00076297806913
O           3.58138544303965    0.16328310669416   -0.19782938518514
H           3.78100675188167   -0.57970749589391   -0.75910139142817
H           0.06498559791019   -1.68791537853914   -1.24741735641640
O          -1.00875640348847    1.98535245383632   -0.60940814058484
H          -0.03513568407859    1.76625234736502   -0.65603444284477
H          -1.05010778525735    2.94292509516542   -0.61729075413390
O           0.00978645380478   -0.69353274160417    3.48258812284112
H           0.40636821974354   -1.03304725102765    4.28572196801664
H           0.74432319199526   -0.48578213702286    2.88603042747671
O          -1.90907595563466    0.30821067454662   -2.60003188861475
H          -2.82585184333318    0.52836551418761   -2.77013084562684
H          -1.56365927204615    0.97899228652643   -1.98292555748968
O          -0.90723644960223   -1.81211295084726   -1.20134554331873
H          -1.10585574345236   -1.02448484476928    0.10620369874653
H          -1.27026826265017   -1.21617926658569   -1.88301693152938
N          -0.98722114162126   -0.29974366776406    0.89865242342249
H          -1.39941153961310   -0.57643635235861    1.78827318183520
H          -1.31750321776149    0.61819619819002    0.57276687832806
H           0.05702645461859   -0.22037111645029    1.05297206696954
