    23
        -45.36689982  Gyration_radius:  2.47797227759 Dipole_moment: 3.508
 S          -1.42691976828963    1.40477244531954    0.06233917872760
O          -0.10995481708046    2.02645591365249    0.22669146921223
O          -1.71152382476550    0.49915518306981    1.15828631766555
O          -1.58252300437227    0.80191736312168   -1.24628886236704
O          -2.49630509360226    2.57815344033830    0.11487388269328
H          -2.88479487766790    2.51359284488771   -0.75219700766850
H          -0.61250800941875   -0.42673225678044   -1.96410292900124
O          -0.20095505925146   -1.50100483977760    1.74117304191091
H          -0.37473102813475   -1.70757380610916    2.66087328887289
H          -0.82065517675219   -0.74870373222924    1.52160507296340
O           0.07603090099648   -1.11690160458204   -2.07492826719841
H          -0.31143918747813   -1.92391196368699   -1.68730824263898
H           1.00365672426430   -0.59469044498454   -0.96272394189743
O           2.69303088223712    2.29723278582772    0.28114559089500
H           3.09625541146613    3.16029237321895    0.18054860892334
H           1.73701358780211    2.44905648981351    0.32005277306931
O          -0.73766112357746   -3.12745348038809   -0.41612986302994
H          -0.31518367051243   -3.97172373432983   -0.25290697421430
H          -0.64531481477281   -2.59948323233162    0.39797722982495
N           1.36008130271757   -0.14023757006352   -0.04969496320559
H           0.78156378649328    0.73787927956749    0.07186873575557
H           2.33687780494730    0.14797540558409   -0.07545512406457
H           1.14595904476238   -0.75806684918091    0.74430098481495
