    23
        -45.38321204  Gyration_radius:  2.25841080848 Dipole_moment: 3.081
 S           0.63956762763481    1.28799567194228    1.24844124220619
O           1.48212383852949    1.15501473327926    0.06146514556520
O           0.84249706792296    0.23714867301428    2.21299692040348
O          -0.76180967804304    1.45780186541631    0.87602353734444
O           1.08940492005677    2.63448840007683    1.94670254243324
H           1.10616755345684    3.25452382999308    1.22526719811702
H          -1.68168740396213    0.02008445943181    0.68446978095510
O          -0.34806401580101    1.88809689774727   -1.68653305974379
H          -0.84239694387052    1.94665140770565   -0.84722928325742
H           0.55896388833185    1.73919227409746   -1.35949872151573
O          -1.97760176557800   -0.86809013680118    0.39151155609042
H          -1.39065065610298   -1.49148149271512    0.85220963982270
H          -1.44865303889174   -0.84874861584876   -1.10235359579404
O           0.20929385389925   -2.15164444263260    1.46206985602196
H           0.46837431042853   -1.26079079178754    1.81510561048480
H           0.37806844764727   -2.77552712157542    2.16977746822169
O           1.46121468077554   -1.35432634332554   -0.85606017988142
H           1.65461058129061   -0.45102419102721   -0.52673516052940
H           1.16528203405552   -1.84941732867520   -0.07323136836579
N          -0.82700614230595   -0.70011101771694   -1.95768225031047
H          -0.71626629800992    0.34708788700272   -2.06715871916583
H          -1.19354908253945   -1.14223582931408   -2.79199267654121
H           0.13211620105244   -1.07468881824653   -1.67756548256504
