    23
        -45.37225153  Gyration_radius:  2.33701025913 Dipole_moment: 6.578
 S           0.61829966192419    0.70002752617344    0.10295379408986
O           1.83402503419915   -0.08503104306831    0.39569598072867
O          -0.33636301918087    0.57537805744656    1.18122085890941
O           0.06150970386473    0.31951307385263   -1.18552165683830
O           1.04117417205176    2.20341451462153    0.02115563767870
H           1.86151327121430    2.20625596004045   -0.51681308647575
H          -0.69005190890010   -1.25303891539208   -1.11912146789566
O          -1.14138830216856   -1.99417018248751   -0.66223783978594
H          -1.93998033863743   -1.55210069321679   -0.25512249891671
H          -0.28242814532124   -2.15973331082261    0.47266361523763
O           3.33941475085926    1.51057571332573   -1.07388970715385
H           4.13539263375836    1.75695318982789   -0.59708260328164
H           2.98295368600926    0.71499223875737   -0.63264514421429
O          -2.33260547015331    1.55205566591031   -1.30973983805875
H          -1.45997498197670    1.12531124836763   -1.40469031263970
H          -2.16053195616247    2.42550254229517   -0.95457253093634
O          -2.78687753401241   -0.38757503544532    0.56827145119106
H          -3.01362055825474    0.23726243498067   -0.14279789977628
H          -2.00775683872011    0.02503034233058    0.98475881167573
N           0.41504630888638   -2.05141164187241    1.35180117825999
H          -0.10430417347829   -1.59134112927650    2.09783772717738
H           1.14140041163325   -1.34997399157859    1.01961074400228
H           0.82515360255206   -2.92789656476111    1.65826480701173
