    23
        -45.35718880  Gyration_radius:  2.35867967088 Dipole_moment: 6.978
 S          -1.06125630500939   -0.28794610483033    0.63264748621816
O          -0.21879642570926    0.86136205911324    0.91343913869089
O          -0.54867663113749   -1.53007050690565    1.10829776897926
O          -1.31033689614601   -0.31774340088032   -0.89100889881612
O          -2.45893354971150   -0.04584983546715    1.19956761242700
H          -2.71257273177841    0.89882153999403    0.87022429798742
H          -0.49908576488013    0.06836689309332   -1.36539807115862
O           0.81923475454462    0.86842918786697   -1.61614182457274
H           1.55599949996576    0.22604440289136   -1.57683217941812
H           0.79363577301633    1.27861876177067   -0.74073531031539
O           0.67345746855480   -2.86896667600007   -1.09253187408430
H           1.43146708670121   -2.27281049398126   -1.13346273183989
H           0.15831203091638   -2.59947631527295   -0.32404210198845
O           2.72379266589238   -0.86822365789804   -0.83871624678730
H           3.65842860061707   -1.04314515602293   -0.95610455162775
H           2.56865283899166   -0.76436293446733    0.13207884090346
O           1.98625354194894   -0.55022034212001    1.69486167376689
H           1.48123197860217   -1.35165085278376    1.87373505295569
H           1.30726026009425    0.13349603635662    1.57751757847369
N          -2.65382614056126    2.31907542440439    0.24050082160681
H          -2.80226740396252    2.27802750370910   -0.75931182342263
H          -1.67365741343362    2.50627969806130    0.42042367906377
H          -3.21831723751151    3.06194476937693    0.63099164295874
