    23
        -45.36025231  Gyration_radius:  2.42112222184 Dipole_moment: 5.383
 S          -0.73223836503433    0.88162952343857   -1.17471559870736
O          -1.03928711925937    2.26990872050198   -1.09348217046896
O          -1.20319304880214    0.08496088511730   -0.06074187109259
O           0.79628759448477    0.66620744961760   -1.31045293228264
O          -1.26889217849365    0.31166976490042   -2.48768529221252
H          -0.94416431101320   -0.64948700831460   -2.58175155754944
H           1.22548522129200    0.38080188746239   -0.44656281733745
O           0.98258731881079    1.68647556895989    2.62826612591667
H           0.10098206049310    1.96945568195125    2.27397869845837
H           0.81400529868971    1.36555346865862    3.51588018680859
O          -1.40889373173652    2.16986374585862    1.61805135919766
H          -1.37767180930911    2.76127711476271    0.85534215211976
H          -1.53280675790698    1.29563342783008    1.21141088469208
O          -0.50713665341511   -2.11903791148861   -2.58634595832260
H          -1.29332050169027   -2.66195433183621   -2.67702933852633
H          -0.14569244950951   -2.28774070230645   -1.66262523163008
O           2.00475686135995    0.03062913441529    0.87200025833862
H           1.60580973788011    0.62522745464627    1.56410931443407
H           2.89554503721373    0.35985117127188    0.73170685802830
N           0.22696606818038   -2.35621545264159   -0.06385574572125
H          -0.00624123044274   -3.13878799366710    0.53435086706065
H          -0.37002950703552   -1.56991698986723    0.19246307825140
H           1.17714247524294   -2.07600457925224    0.14768872054433
