    23
        -45.36728247  Gyration_radius:  2.40670465764 Dipole_moment: 1.813
 S           0.74464823026212    0.03941543969388   -0.63147695691257
O          -0.31568484441226    0.92049985191631   -1.06237711776059
O           0.87034870598738   -1.15234495122643   -1.41988897351580
O           0.52408370777794   -0.32161775813974    0.84805143916266
O           2.07426564469322    0.78131363744363   -0.59779360509231
H           2.04016596036457    1.40848822478376    0.22236805091523
H          -0.24730706503940   -1.05459397116185    0.94918941685419
O           0.39983480863423   -3.61962278901692   -0.48552523476776
H           0.63516955148838   -2.79545304128590   -0.95476080607801
H           1.22556096803852   -4.01518610013949   -0.20236116427071
O          -1.25283143518741   -2.05256746738852    0.90362093186354
H          -0.75550726020817   -2.82471187300308    0.55411507052835
H          -1.79678869588147   -1.74099010750232    0.14136472840333
O           1.74853945143876    2.16205597615851    1.48162439263528
H           1.44962167605054    1.44871328271690    2.05375554841741
H           0.92443893661955    2.68108190583865    1.23105026102395
O          -2.09651368403207   -1.05557192332358   -1.40656094709663
H          -1.58823939408948   -0.22523881393636   -1.37728135761256
H          -1.66457387747668   -1.59994972051575   -2.06984823236927
N          -0.50612953571222    3.21753549754148    0.60933063792731
H          -0.60584864352990    2.47914558706961   -0.08840766975922
H          -0.46693569616952    4.10206333963373    0.11925549768236
H          -1.34031748979510    3.21753578378299    1.18255609931382
