    23
        -45.37910774  Gyration_radius:  2.28514877382 Dipole_moment: 4.270
 S          -1.68967723170173   -0.89752291135443   -0.29127783031821
O          -0.54332508122321   -1.60717328781053   -0.84396503835224
O          -1.65862538819572    0.52396217357446   -0.62445465615744
O          -1.86718570749045   -1.14264181409171    1.12123935839331
O          -2.97461491143018   -1.46748336484514   -1.02326045290560
H          -3.09801085852377   -2.31212078103718   -0.60202145986691
H          -0.65064412144648   -0.71420934495600    2.25871131965071
O           0.30486571177435    0.26614941374522   -2.47588224798767
H          -0.49330496141066    0.77344236339798   -2.28152885255615
H           0.11228197586176   -0.59445072406751   -2.04762204969022
O           0.18611396421065   -0.31566322759346    2.58079049751656
H           0.88515749874063   -0.80771915903352    2.09014949625219
H           0.15974277227904    0.93597753102772    1.76080869470430
O           2.09499439039029    1.15900318194169   -0.79088003661884
H           1.47172384102495    0.82902956114047   -1.49943359044186
H           2.86219183174925    1.50812616664536   -1.24534247775581
O           1.69860940285741   -1.29481118523470    0.63617444579556
H           2.07544781067288   -0.53837432505151    0.16664730568553
H           0.93787053100167   -1.58276314658357    0.09825803698020
N           0.07495588836780    1.67987627329731    0.96041664752032
H           0.94825157264813    1.67439448929669    0.40249681807072
H          -0.13647879219116    2.60543574629515    1.31568133599724
H          -0.70034013796710    1.31953635129898    0.33429473608147
