    23
        -45.37910838  Gyration_radius:  2.28515497955 Dipole_moment: 4.275
 S           0.64587759937641    1.77758362467294    0.41057501013567
O           1.70539706906992    0.79997385343428    0.19844567194181
O          -0.39846446301970    1.26139971663997    1.29122400139599
O           0.12744083058955    2.31307247176604   -0.82695020257783
O           1.29465736604435    2.98870095593218    1.20050860880174
H           1.78152098144191    3.44421223330440    0.52112593748512
H          -0.61055722285289    1.29205080925619   -1.99742184288811
O          -0.97920049527521    0.46261587090084   -2.37009244698011
H          -0.20590752755514   -0.14815013106997   -2.39518703273224
H          -1.64655524302258   -0.05273214593824   -1.13379599389678
O          -0.26933596826428   -2.46027793761909    0.48143826122115
H           0.26600525048141   -1.93170934971409    1.13982222083176
H          -0.22261021739368   -3.37383883551260    0.76462360106034
O           1.04720286024733   -0.88452767528318    2.10138399508648
H           0.39224834741608   -0.24839442930512    2.41528227016355
H           1.54008466048076   -0.36208283982608    1.43414135117326
O           1.05848311603777   -1.06990111131830   -1.64488256378993
H           1.45121107529849   -0.38941650594549   -1.06710600845888
H           0.70406949942830   -1.74239288446934   -1.04756651117509
N          -1.89902651820603   -0.36067402731372   -0.11267794078421
H          -1.40313871906359    0.33620392775788    0.51284504628260
H          -1.48038328244273   -1.29079603938782    0.07086161286690
H          -2.89901901881766   -0.36091954096654    0.05340294483654
