    23
        -45.37094248  Gyration_radius:  2.26060094439 Dipole_moment: 6.335
 S           0.18921329780894   -0.61045235439163    1.36121595349030
O           1.37007146416786   -1.14474225993937    1.95890289103398
O          -0.08017740038362   -1.17661044065379    0.02214777559369
O           0.36475991561405    0.93871157199891    1.10880079924913
O          -1.01601447501051   -0.66702158641628    2.19220915034589
H          -1.83199189579856    0.36665370853847    1.71413697686995
H           1.18917299174343    1.05465244790490    0.53895206851890
O           0.36357169212941    0.12272609668803   -2.29273919215860
H           0.25000927594911   -0.39089450465224   -1.46570483986470
H           0.78953027743572   -0.47401350662316   -2.91101442241318
O           2.56716094628650   -1.61831690563044   -0.42993689392528
H           2.90502246934380   -1.78887885648218    0.45512402525475
H           1.60311250954449   -1.68247236138794   -0.31774781569166
O           2.30806443596272    1.05198757297507   -0.56123947001783
H           2.64054197961215    0.12702215132314   -0.51829150098467
H           1.75745928160846    1.07626184968702   -1.36108749945576
O          -2.25594277391543   -0.13384255521445   -1.09122567786650
H          -1.77948680510710    0.24969418366711   -1.83791777641127
H          -1.59546594537093   -0.72321454710542   -0.66228264381654
N          -2.34964816528385    1.19740957217725    1.16544637134197
H          -3.23310941495042    1.45517263445944    1.59208740467641
H          -2.46703870424352    0.79905763537528    0.18695085408932
H          -1.68881495713786    1.97111046370357    1.15321348214099
