    23
        -45.36653086  Gyration_radius:  2.26367871937 Dipole_moment: 5.944
 S          -1.02034370670251    0.55576990732513    0.65890255051257
O          -1.27468375296037   -0.72065712397966    0.02526845034740
O          -1.72088980291452    1.68636122807111    0.11483363067996
O           0.42127272774547    0.79736521672714    0.80865184304031
O          -1.55732203607583    0.37699386775849    2.15347632976458
H          -1.88631054998494    1.24171532448239    2.37752817077715
H           1.38851481491376   -0.26056151326212    0.32843013906787
O           0.34193469077572   -1.23466056322510   -2.04694893403448
H           0.27306188896060   -0.30103589135672   -2.35496313935905
H          -0.44924442826176   -1.32212904659143   -1.48401079662921
O           1.80517124811646   -1.12468573941968   -0.02851596653362
H           1.31508245498253   -1.84474364577320    0.58366229918980
H           1.32860613034793   -1.22136823142392   -0.97346187612549
O           0.83674473550950    3.16990416743494   -0.44232052394590
H          -0.02140494716769    3.58522389460968   -0.32535102836168
H           0.81899416800493    2.37899507326915    0.12270173277911
O          -0.23861496769601    1.33432266950090   -2.16149061106072
H           0.38631303916861    2.02662429132149   -1.88282648120186
H          -0.97782140782881    1.41851635030514   -1.54188026101227
N           0.28317310744484   -2.56052161113777    1.39837340539627
H           0.35191464396395   -2.42816751557761    2.39890942881142
H           0.10998775805266   -3.53998587774944    1.21295683813222
H          -0.51413580845216   -2.01327525114919    1.05807478979591
