    23
        -45.36653057  Gyration_radius:  2.26395969439 Dipole_moment: 5.937
 S           1.22559309224234   -0.04481574429089   -0.53720419255611
O           1.10937012242684   -0.44716648811932    0.84838282176303
O           1.96053902512068    1.16403053433831   -0.78906847453168
O          -0.08139694495618   -0.06593730727655   -1.20857932044482
O           2.05463817356782   -1.22230262685104   -1.22984763879861
H           2.56093582225023   -0.77438337692134   -1.90002569000306
H          -1.29735408327217   -0.49084898291355   -0.41767861233289
O          -1.00054612639154    0.62297147305556    2.10395848908732
H          -0.12847241909296    0.19483744965301    2.02262409432665
H          -0.84610938438275    1.49019002030465    1.66161410006561
O          -1.92506092624952   -0.84412240941492    0.30974462234705
H          -1.43828798753014   -1.75655037327061    0.56145408278246
H          -1.69962800782131   -0.19864683138202    1.12350561675965
O          -0.03794991584543    2.49924779587444    0.52353308962473
H           0.82624507540796    2.14577942521035    0.26705146000201
H          -0.45989352670113    2.73498447280899   -0.32148238209113
O          -0.38114484790628    2.44655982404613   -2.18835469463481
H          -0.36129869385329    1.49497024445192   -1.98995977823977
H           0.53569044127570    2.69664846051309   -2.32735705293939
N          -0.38448730050805   -2.78538867583943    0.83226980778572
H           0.39546472980974   -2.12212669707527    0.88529497721061
H          -0.19998234938718   -3.42844677862065    0.07341202209924
H          -0.42686398815662   -3.30948342826807    1.69671263263368
