    23
        -45.35127952  Gyration_radius:  2.44918313118 Dipole_moment: 1.711
 S           1.57840152621779    1.66388759431791    0.27883975102887
O           1.78003679392512    0.30922979515020   -0.11921137388640
O           1.27758647685985    1.93017904184798    1.64937422631214
O           0.53243033701208    2.32786997376631   -0.61923075004394
O           2.89744797486882    2.46226104813052   -0.06991130466787
H           2.87636452296465    3.26934891824202    0.44039822039123
H           0.23436764268254    1.62270635551031   -1.33344499970247
O          -0.95975296932648    0.28824056312550    1.70890533277409
H          -0.49067995801269   -0.58672954588477    1.72230090601528
H          -0.26563258975898    0.95151179639851    1.81894097950317
O          -2.24733005081626    0.00365333622798   -0.52623188633136
H          -3.00972166105459    0.58357573658342   -0.51428715835789
H          -1.78495528574605    0.13586985889533    0.35373726030178
O          -0.15869620853531    0.44695041230547   -2.09456143031983
H           0.48977567524625   -0.18152114352811   -1.74940313356944
H          -1.00837452105590    0.23381959683497   -1.63540021806805
O          -1.14164624578887   -2.50074713208839   -1.16321320484607
H          -1.66761411829645   -1.73862556273197   -0.88055792953694
H          -1.53685020668821   -2.82149360384409   -1.97504033173977
N           0.47802833994010   -1.93800549923487    1.31359767100918
H           0.89575807088055   -2.61120101531000    1.94252858019669
H           1.22297798256752   -1.40240101863367    0.87873769556536
H           0.00807850191935   -2.44837949607201    0.57313308796844
