    23
        -45.37208521  Gyration_radius:  2.39469361576 Dipole_moment: 2.645
 S          -0.76977399415115    0.43939372452945   -1.92612669878631
O           0.29129172172126   -0.09297875008713   -2.73057228186505
O          -0.33251815111749    1.41807287127050   -0.93055892862283
O          -1.62010816403254   -0.58082276736455   -1.31078950201928
O          -1.72462136503635    1.26148773200860   -2.90597110995694
H          -1.63093617078678    0.83065093615596   -3.75103074106212
H          -0.35041940792494   -1.65723751444612   -0.59131467676111
O           2.17027391900364    0.39788173175276    2.16022936584044
H           2.21487490517933    0.44227905006601    1.19142934837771
H           2.97356466712989   -0.03942819204925    2.44725592272800
O           2.02883324229564    0.26761244093400   -0.60876136609457
H           2.25709966969331    0.03563357868037   -1.51416086582328
H           1.23079592305443    0.82678099268226   -0.70589339443765
O           0.39006474691807   -1.91127340469637   -0.01833227290097
H           0.02990502331966   -1.52229896664952    1.61134706015248
H           1.11603754605538   -1.30992505034030   -0.25482993259071
O          -0.16492189122627   -0.94126603800744    2.38620474982858
H           0.65397003401786   -0.41525081236127    2.49886018521841
H          -1.16089404387543   -0.05157178143478    1.71345332756297
N          -1.78593461667024    0.52811345385845    1.02487774458316
H          -1.18888019384255    1.22704037024095    0.53244074618136
H          -2.59816858547056    0.94070535855619    1.46897994000689
H          -2.02953482423409   -0.09359895330376    0.21326337042379
