    23
        -45.37514904  Gyration_radius:  2.30800715788 Dipole_moment: 4.506
 S          -0.21048762125368    1.40617103505876   -0.28817796363602
O           0.17601364241458    0.78940484995879    0.99773472842894
O          -1.61323415193953    1.20842293573642   -0.54243705124509
O           0.65757940533283    0.91304713530228   -1.35308841426321
O           0.04579426940088    2.93872424064977   -0.13784818931105
H           1.02078000946477    2.99440326421674   -0.11469519089677
H           0.25267567501923   -0.76201159246164   -1.66536993135426
O           1.36484717955509   -1.58820433050654    0.93307971747729
H           2.32070621870475   -1.57826874231517    0.86744402029148
H           1.08439155114349   -0.64706529089750    0.94584513274512
O           0.02449032843074   -1.69710042671689   -1.50795438528382
H           0.54168711635948   -1.94166595445320   -0.72406234864558
H          -1.64196096042586   -1.62179723242244   -1.15924527925187
O          -2.44369032507707   -1.29822348352829   -0.67698496575844
H          -2.39690515472465   -0.32528314944034   -0.79150061678364
H          -1.94890002009065   -1.33027061456498    0.69674692397082
O           2.61799502271131    2.42868066323288   -0.56987393595758
H           3.01656078545189    2.89872711951320   -1.30567066879002
H           2.06965272256533    1.71486412231292   -0.96235108872785
N          -1.39150381092795   -1.18418334786247    1.64830521027709
H          -2.00220730074408   -1.12204294063610    2.45520299295087
H          -0.85089121584477   -0.27744202232020    1.49336040498112
H          -0.69339337552344   -1.91888623787432    1.76154088878566
