    23
        -45.37484932  Gyration_radius:  2.27243666254 Dipole_moment: 5.308
 S          -0.22321322279172    0.28815657070150    1.34245866679440
O           0.46814808311714   -0.96738708469899    1.05183501393365
O          -0.55437074438866    0.99001849698746    0.10202020400456
O           0.70918194582520    1.18351544759709    2.18790252436358
O          -1.43691707095273    0.06658504516034    2.12719373929360
H          -2.39660770987491   -0.20691677077576    1.06270884178608
H           1.47577623206882    1.46439267150156    1.60388583333660
O           0.29170778639194    0.14694785130491   -2.20181660755595
H           0.37084544136742    0.88613053575917   -2.80604916763982
H          -0.00093534116607    0.53150427981265   -1.33450445006088
O          -1.03684042112544   -1.90906890825859   -0.89272368872707
H          -0.43003762367115   -1.75996669301598   -0.12950763657859
H          -0.61656652785841   -1.43107760028109   -1.62471108693395
O           2.47706848012623   -0.53702289186202   -0.63218962592526
H           1.85381408018483   -0.86767161506886    0.04681453261842
H           1.91789941894203   -0.38364206184531   -1.41065294140447
O           2.73552945606782    1.71514825814586    0.67133210848867
H           2.73033064471087    0.90089804882919    0.09483511814653
H           3.52967798949220    1.65617552549684    1.20663676066922
N          -2.90128246223189   -0.39823708306528    0.10562206749978
H          -3.84206465381169   -0.76181853817346    0.21944334057291
H          -2.23224464738161   -1.09211753735161   -0.39225291422741
H          -2.88889912302626    0.48545406310733   -0.39828062244520
