    23
        -45.37484925  Gyration_radius:  2.27219666464 Dipole_moment: 5.307
 S          -0.84109123265272    0.96507467231796   -0.54405177349935
O           0.58557463675328    1.28585728453190   -0.52004186870779
O          -1.08056532279871   -0.35148165320539    0.04745968063955
O          -1.32036634650066    0.94619638897616   -2.01232998192276
O          -1.63285529694119    1.97590686374277    0.15562516717119
H          -1.55150859763328    1.47792076868747    1.52456971439807
H          -0.89624711072331    0.15531185968239   -2.46202487515630
O          -0.04901876882964   -1.00409503744532   -3.13836026040952
H           0.22458171296344   -0.71451731370811   -4.01125428323876
H           0.77624623164537   -1.00845152572000   -2.57777627935401
O           0.87849519041773   -1.91106645274788    0.72900763864989
H           0.59645402516590   -2.82501917191020    0.67588025868125
H           0.10454124223985   -1.36704051114120    0.42779122365753
O           1.19991588183365    0.56789422788337    1.93733291274466
H           1.34678900933251   -0.37521068688833    1.76445731870561
H           1.13247674094846    0.96861826091895    1.03846629732966
O           1.99065113716755   -0.73241295476330   -1.52468061929646
H           1.64333340740997    0.12929756705811   -1.21553843334056
H           1.86494196185605   -1.32341477533304   -0.76494545501022
N          -1.32369279151386    0.92482738143398    2.44637063119826
H          -0.25196695091846    0.76845230496588    2.38215350871785
H          -1.79120279966346    0.02585505432117    2.35645850949619
H          -1.60548595956094    1.42149743833025    3.28543093853988
