    23
        -45.37878056  Gyration_radius:  2.3304665802 Dipole_moment: 5.075
 S           0.48960955850701    1.22454963097502    0.54286942133115
O           0.35867055632156    0.83256939054444   -0.86740101160345
O           1.86715613916965    1.24721605792373    0.96172902527527
O          -0.33245933344038    0.31746874276201    1.36929801804669
O          -0.10284670157460    2.64741714075064    0.69203016548040
H          -1.08657779769687    2.49804602775380    0.73111843616376
H           0.17413459700403   -1.10394846767300    1.16123070344367
O           3.08129592857374   -1.04530129523626    0.72203994552186
H           2.73185373758261   -0.13511320339900    0.89982945986610
H           3.53336231300775   -0.98424190240442   -0.12194782127916
O          -2.52417545406659    1.73222700383336    0.77759119223261
H          -2.64698883914352    1.38965071177572   -0.12941481778652
H          -2.06255386199931    1.02586695760116    1.25581353636314
O          -0.10964723983819   -1.63427999679360   -1.70872753864862
H           0.20182601090798   -0.71662755479867   -1.54149458091502
H          -1.03842243446624   -1.53400798277754   -1.93691802718800
O          -2.11366425846875    0.76244162054104   -1.72793336624597
H          -2.22526975256419    1.39430266713705   -2.44001382160290
H          -1.16958110006125    0.83269443082116   -1.44670747396079
N           0.62410369586101   -2.01105383800232    0.80686770402431
H           1.66311541797539   -1.81331869939336    0.79652751636475
H           0.29436245305402   -2.11911536463697   -0.18651511467748
H           0.39269636533015   -2.80744203736069    1.39012845977520
