    23
        -45.34944951  Gyration_radius:  2.42814564669 Dipole_moment: 5.032
 S           0.67699898456659   -1.25250868704575    0.95024499707419
O           0.42026565430602   -1.71824618115027   -0.37671583094600
O           2.00817802894266   -0.91002726833255    1.30557577201837
O           0.18057109490052   -2.38920974767370    1.93106445618962
O          -0.24598730223402   -0.07830318525502    1.29985180802620
H          -1.19486379956740   -0.31100745767414    0.96921418238187
H          -0.47263082593054   -2.89991110676743    1.45574979762687
O          -0.05153848325075    0.16004068724012   -2.31915193860028
H           0.09513240398765   -0.67275040199964   -1.84639774429562
H           0.61299044445125    0.76512104958850   -1.91747420522206
O          -2.54592450719357   -0.70099493914685    0.51718961999044
H          -2.58496405419080   -0.27474859815856   -0.39930977158647
H          -3.19085037076634   -0.22683265913525    1.04811332203329
O           1.80588717577714    1.78525258278536    2.10103835614538
H           0.86144108402544    1.71177400984240    2.25483024240332
H           2.11433580693569    0.87716794904737    1.98044395066621
O          -2.56501692676374    0.49253342652619   -1.76291259164542
H          -1.59293595946817    0.47755306657575   -2.00309793841665
H          -3.01265099982670    0.05277865655828   -2.48784860162367
N           1.94571724318959    1.25310008332694   -0.85095797614190
H           2.21903369927416    0.36281680875130   -0.44728627302742
H           1.76333708500700    1.87125537895387   -0.06468294159949
H           2.75347454381621    1.62514651315321   -1.33748069143971
