    23
        -45.34944940  Gyration_radius:  2.42773989541 Dipole_moment: 5.047
 S          -0.89835505479593   -1.45370402068649   -0.06466444304269
O           0.29218392509933   -1.63616450625144    0.70534222431461
O          -2.13140748590537   -1.28585633940585    0.61873214049497
O          -1.02363547682007   -2.71688276026683   -1.00787771235655
O          -0.72585110820704   -0.30259446870262   -1.06391119418001
H           0.20275245026818   -0.40136496826851   -1.50082460287707
H          -0.14392349708017   -3.07639718932977   -1.10965070673611
O           1.62961280302861    0.60614070345892    1.54717261551844
H           1.35372327648995   -0.31026004131940    1.39698359579007
H           0.77684365473317    1.07398015167070    1.69866594615194
O           2.91124917125571    1.00028746492877   -0.67528804797528
H           2.41182379223629    0.96401142716687    0.19198017854913
H           3.80938209658271    0.74115325375370   -0.46214790262776
O          -3.05267263801082    1.21708701418669   -0.28822451510416
H          -3.01070691682629    0.32767344120397    0.08807741618408
H          -2.49822067605287    1.18578277343837   -1.07076245800080
O           1.52428798195592   -0.60775400073952   -2.12966558056338
H           1.51259361606853   -0.20348227002973   -3.00089860089181
H           2.11332121995684   -0.01171095247605   -1.56337027084307
N          -0.98073746259305    1.24839277276771    1.88376066384380
H          -1.52180994208964    1.71364685380140    1.15959338474149
H          -1.26798761553891    1.64868107107766    2.76965503809169
H          -1.28246613377212    0.27933457998679    1.87732283149587
