    23
        -45.37351279  Gyration_radius:  2.34119710964 Dipole_moment: 6.107
 S           0.39170645751447    0.96982707322644   -1.35465347516394
O          -0.96759433047825    0.87564075863192   -0.79037830342224
O           0.52466135413722    0.38068333449540   -2.64703737055554
O           1.36021233347152    0.47976102484840   -0.36615515373482
O           0.67468053181171    2.52029486307323   -1.49542973145622
H           0.62274215689430    2.86915785921620   -0.60024966171099
H           1.27942544543190   -0.91126320966841    0.73203015237876
O          -1.38455119612678   -1.43352985916224   -2.11495064902398
H          -1.66132004507039   -0.64568139698432   -1.62479598478422
H          -0.64340905307818   -1.09502713512252   -2.64107307970106
O           1.06278308816741    2.38214540398771    1.33568731666226
H           1.29910546988879    1.62154265731305    0.74342530342453
H           1.89191958231807    2.73342393320111    1.66493085943246
O          -0.55043985024030   -3.07085833187783   -0.18511152891401
H          -0.12819491481972   -3.81311867567411   -0.61953881377856
H          -0.91335069162935   -2.50354451529608   -0.90745693373375
O           0.84509517409891   -1.46412088396373    1.40978126583250
H           0.35981943594137   -2.15514086784896    0.90147039987845
H          -0.19057204919976   -0.41902806509728    1.76631540804096
N          -0.84186084293203    0.45536175388465    1.74949866079625
H          -1.70299619421991    0.32424869020325    2.26767194726424
H          -1.01896266096651    0.62800324242277    0.70346528867459
H          -0.30889919157285    1.27122234659328    2.07255409378119
