    23
        -45.36616285  Gyration_radius:  2.32845202185 Dipole_moment: 3.093
 S           0.60255153467710    0.62106469775683   -1.37685883197950
O          -0.71645042045148    0.93853772827918   -0.85720339268679
O           0.61788493615448    0.16244480970978   -2.74296855885125
O           1.32678182804953   -0.25718300034878   -0.46012138658174
O           1.42137271603958    1.99536669463548   -1.39039960205814
H           1.70598817910021    2.06156584571522   -2.29703819144332
H           0.64397970777957   -1.09549950623957    0.56868445388068
O          -0.50110335235629   -2.19763234625472   -2.26849693298439
H           0.25293023135717   -2.76389611913697   -2.09372198394973
H          -0.13126404178086   -1.34935256588092   -2.58695243412131
O          -1.97732271353400   -1.29287331384214   -0.25680137556904
H          -1.69259570612096   -1.80237266908591   -1.04676054963452
H          -1.73830088466356   -0.36654611746143   -0.48697269035021
O           0.00980297209847   -1.60002099086632    1.20667415599999
H          -0.91238022945846   -1.57574028389872    0.65979667458970
H          -0.12354746066382   -0.97745024103999    2.02655458672199
O          -0.39234666273181    0.11423243516872    3.02541492449750
H          -1.33024623550034    0.30969507956754    3.07787130565998
H           0.03485570102020    0.88289440889148    2.52790626805322
N           0.63028745348711    1.91586722067935    1.42598739163770
H           0.71898634527036    2.90927972755576    1.59962481040724
H           0.01471970361340    1.79215232672938    0.62366000978472
H           1.53541641856271    1.57546617925595    1.12212134889342
