    23
        -45.36542594  Gyration_radius:  2.34259486228 Dipole_moment: 4.539
 S           0.12754517882989   -0.20563108780667   -1.31334474470149
O          -1.20350160750276   -0.55171053939445   -0.81190185978698
O           1.17268730753582   -0.69219360411370   -0.42884905118717
O           0.24018850971408    1.23725662410906   -1.52717439554595
O           0.32124198196616   -0.91329558914644   -2.68329281742073
H          -0.50514492835322   -0.70241701272796   -3.16646516055191
H           0.28516576995603    2.02140166214126   -0.32685729361859
O           2.43434324686378    0.96631375734455    1.17252598187544
H           2.43458769022910    0.49758583064132    2.00991588364510
H           2.12992075161584    0.31813494214573    0.49327916502253
O          -1.22353102532652    0.62429988889931    1.55531210223404
H          -1.41991113763455    0.19819865617486    0.69097194693310
H          -0.68769562276114   -0.05590000367589    2.02990590214161
O           0.34631604621446    2.34830694807356    0.67718267583060
H          -0.37593967960008    1.71923941644095    1.15014622999873
H           1.25177732410188    1.98215742174094    0.96651769427590
O          -2.19914441862839   -0.39985146742900   -3.24053997064513
H          -2.11214275635944   -0.36510713826146   -2.26730885305009
H          -2.78103689741402   -1.13711431286886   -3.43933474942988
N           0.32998826700230   -1.47858572385382    2.20071479026625
H          -0.34639870567796   -2.23269517876743    2.21119063308729
H           1.09468154377984   -1.76046754018390    2.80247773852505
H           0.68600317145839   -1.41792593948322    1.24492814212733
