    23
        -45.34914953  Gyration_radius:  2.32571106308 Dipole_moment: 5.723
 S           1.15837283180586   -1.31281863509689   -0.19432982891927
O           0.02135276352196   -1.88905203430259   -0.85972560058034
O           0.90053667142753   -0.51281274522073    0.95239849627178
O           1.99929528556110   -0.53514734322812   -1.21330850072194
O           2.12594571213587   -2.47502165168997    0.18895827981410
H           1.93367948902940   -3.21197479369563   -0.38732023750207
H           1.50370933951270    0.34167399687164   -1.45834261118837
O           0.63186021590213    1.48648897447831   -1.80802689528943
H           0.67336073765449    1.65264585253875   -2.75295958853644
H          -0.29522312616058    1.10670155329253   -1.62680270111305
O          -1.56884214749437    0.28073545173004   -1.32250499329643
H          -1.78686136787386    0.43948321649027   -0.36967655076266
H          -1.23917458540069   -0.62937704971090   -1.34856517002809
O          -1.41032928880285   -2.61084583852731    1.42595376340746
H          -1.93471104556348   -1.83511971350833    1.64285839104074
H          -1.03766180193051   -2.45363661090716    0.55200878378694
O          -1.64056658056908    0.51545159729975    1.31403447641002
H          -0.83013635646661   -0.00568025798186    1.42170401689915
H          -1.32635603384643    1.43181134716092    1.41664825040019
N           0.26264935458262    2.50864865695051    1.17097909477703
H           0.84640390902725    1.70599355899717    1.38480072099321
H           0.62412029226954    3.30108058319156    1.68742185710562
H           0.38857571168644    2.70077188488263    0.18379651702894
