    23
        -45.36780659  Gyration_radius:  2.24980559394 Dipole_moment: 3.039
 S          -1.03655309940534   -0.76915163039646    0.35874866199447
O           0.16138202802256   -1.15430806815590   -0.38866524367185
O          -2.25651913105755   -0.84146737147647   -0.39311709559624
O          -0.82418334090185    0.49994937189523    1.03854171038285
O          -1.17750378815180   -1.87497738528057    1.50826249983353
H          -2.12193115943229   -1.97994082362814    1.55876372928733
H           0.70675620864655    0.75367356218186    1.88060073813468
O           1.60645916629398   -1.95933340861738    1.74467594076709
H           1.13980266465307   -1.84753565068755    0.89730827449851
H           0.99043680477544   -2.42293866331148    2.31552124374547
O          -0.11265428804354    2.29383618337344   -0.83092144293623
H          -0.55261621921114    1.92145285831112   -0.04288461459624
H          -0.57677857411624    1.84992975957821   -1.60336673310620
O           1.82582145393729    0.78761765302981   -0.53632640994164
H           1.27427290970374   -0.05498771983773   -0.62438686874671
H           1.08660498418931    1.56371568673467   -0.73818828195104
O           1.68124282983158    0.70143588236224    1.96008670457376
H           1.95948490385009    0.84475960979933    0.51018611607735
H           1.86836236963935   -0.25145359389535    2.10288393830418
N          -1.28080723539178    0.70147020498843   -2.56328988981172
H          -1.73764280593932    0.11186168697289   -1.86625638077534
H          -0.63402617173830    0.11208209829449   -3.07285428930524
H          -1.98941052015017    1.01430976776565   -3.21532231718038
