    23
        -45.35605631  Gyration_radius:  2.34798150142 Dipole_moment: 5.923
 S           0.81054195463396    0.86680564234937    1.27171578188499
O           2.03983144054754    1.61704623703105    1.20414747616405
O           0.33555679839662    0.59045982461526    2.59940587542067
O           1.12682013447064   -0.56579833313725    0.59574601664910
O          -0.23205991902386    1.37677727250379    0.37091407798056
H          -0.55866683200968    0.46692343270421   -0.66320468323263
H           1.83505991202687   -0.94450605640818    1.10617337031500
O           1.57875640140071   -0.27368230632076   -2.48582735939407
H           1.62706251841607   -0.12379346939726   -3.43195860217287
H           1.85405294784687    0.58090400601702   -2.05223311105339
O          -0.73843438104197   -0.23717585675805   -1.43508255215090
H          -1.00220250615329   -1.10867442198754   -0.93509650147304
H           0.18477754021971   -0.37436590067822   -1.86599747464877
O          -1.54989924342474   -2.22193574795691   -0.10066200810282
H          -2.40544361203774   -2.53420437734810   -0.40155592676340
H          -1.71463946497143   -1.69646126714492    0.75461755213305
O           1.92403543677844    2.05975954337095   -1.35650863134052
H           2.13317673508345    1.93459621850408   -0.40160074513405
H           1.05797141369129    2.47714222714209   -1.34604430646752
N          -2.05037698701335   -0.67151270903392    1.93962247504523
H          -1.15601200626607   -0.24778648991991    2.20856558522803
H          -2.45583309607440   -1.06552415068044    2.78024835666571
H          -2.64407516551069    0.09500669257108    1.64461531443274
