    23
        -45.37007819  Gyration_radius:  2.29405463309 Dipole_moment: 7.688
 S          -0.77778856527308   -1.08489028437567    1.37623484978002
O          -2.15280598960191   -0.74079792075932    1.16266819117632
O           0.07155797736941    0.04573334417390    1.76289190458538
O          -0.15441055255924   -1.83015860207478    0.28314943046069
O          -0.75584966382144   -2.07366279555814    2.62418031567532
H          -1.66239880093875   -2.07548746352278    2.91467749873846
H           1.41176640393153   -1.38390342046857    0.13628776830455
O          -0.51747203104590   -0.42113646219264   -2.02684691793440
H          -0.48475654000349   -1.09004834516560   -1.32310028720094
H          -1.29649524263248    0.14725882059052   -1.78941867107420
O          -2.36801234657984    1.06104751211649   -0.89173814582774
H          -1.77970156179249    1.74580996414962   -0.52127853209342
H          -2.52968931540638    0.44454812955107   -0.15889335282940
O          -0.22391439912826    2.32180260151814    0.24937008802470
H          -0.17065995537121    1.62709025956877    0.92504562922256
H           0.45866752934664    2.11901720942528   -0.40270490598182
O           1.55690478817233    1.02967889573227   -1.64185802803322
H           1.94953442949867    1.27075424266187   -2.48136075962481
H           0.72195957083280    0.49293363091037   -1.86509743924760
N           2.08563828093229   -0.60307137799463    0.35706678165265
H           2.10665942643931    0.05584460355996   -0.46646517318705
H           3.00347642525489   -0.91327581018775    0.65451903321385
H           1.50779014214923   -0.14508676174278    1.12267072230087
