    23
        -45.37306169  Gyration_radius:  2.33889918247 Dipole_moment: 4.234
 S           1.55649820770934    0.20224743885273    1.27844079244825
O           2.76694275109449    0.45586604140330    0.53173393234335
O           0.74578995476709   -0.88344706882968    0.76383666056738
O           0.74818117061574    1.40400605052075    1.48382374013574
O           2.02534412886355   -0.26395201664954    2.72749426627304
H           2.78549026196835    0.28787581217099    2.88214714261783
H          -0.65884734088726    1.18784277954981    1.00725939512172
O           1.63251206360294    0.34263298507887   -1.81762398456461
H           1.75132598669057   -0.58440209662090   -2.03901143013672
H           2.10806832752429    0.47044819320457   -0.96503815296085
O          -1.84858170933846   -1.60783901474071    1.15139841416105
H          -0.92107811365603   -1.61852404049470    1.43832798276467
H          -1.80177091337718   -1.97650775631954    0.24867914717751
O          -0.90190753916048    0.98599500248419   -2.04635606996872
H           0.06843860595614    0.79416810922638   -1.94772749617954
H          -0.96316959207073    1.70997203630044   -2.67089117960334
O          -0.77142219566027   -1.83458844101014   -1.33154214853799
H          -0.06716260603090   -1.58333466073965   -0.71061417720012
H          -0.97837035407598   -1.03758772698580   -1.83077661672073
N          -1.61706912631460    0.96162364501204    0.57153343281965
H          -1.84419330933144   -0.04593100447506    0.83461754149907
H          -1.48784818290170    1.02704439630869   -0.45986194000157
H          -2.32717046598595    1.60639130675378    0.90015075794772
