    23
        -45.36692921  Gyration_radius:  2.38561833819 Dipole_moment: 2.492
 S           0.65152867932560    0.02967333283548    0.71057733352490
O           1.48692967553689    0.81190218371113   -0.18175461310528
O           0.82531665525858   -1.38664408038660    0.59476459767755
O          -0.80488949456948    0.41900986817311    0.47047939418111
O           0.91402665381965    0.44946512801050    2.15756427260181
H           0.79325341324048    1.45444509826838    2.25033629943695
H          -1.20111436109866   -0.10164539643080   -0.41532091017785
O           0.67789467677471    2.99091280726655    2.23118331474405
H           0.37622114558270    3.17633307073222    1.30350880573188
H           1.55084519061845    3.38174981757976    2.31448257359265
O           1.03532682065465   -0.91179188607157   -2.19763777759247
H           1.35658338491150   -0.17379845031294   -1.65164292656446
H           1.32265064528420   -1.70134427275781   -1.73043662753912
O          -1.53440928808177   -0.82272447113773   -1.52140198292270
H          -1.63429391296943   -1.73670716117461   -1.12354759836318
H          -0.67301218747544   -0.84599639974812   -2.00324590451247
O           0.05868610793678    3.05528554676720   -0.32276098325238
H           0.67101435263000    2.30453340917293   -0.45336741284039
H          -0.82446312243887    2.69244786067751   -0.43153891032910
N          -1.36145863847836   -3.10046275678789   -0.18746466897638
H          -1.11325876746588   -3.98672915071665   -0.60855339428532
H          -2.04448419189327   -3.28148839861613    0.53685188932322
H          -0.52889343782734   -2.71642569724069    0.25892523010944
