    23
        -45.36638054  Gyration_radius:  2.27740525332 Dipole_moment: 3.977
 S           1.17725679617048    0.21922818807322    0.90786628528757
O           1.44706572100355   -0.83761602688951   -0.06988236259156
O           0.88529553676758   -0.30554789143440    2.22136846482630
O           0.17907621535796    1.14966200605145    0.41417181706806
O           2.52387510833881    1.04253369006947    1.04171002630008
H           3.00840826092355    0.52581496062523    1.67755171096157
H          -0.95001602951506    0.95292376850426   -1.00004467651010
O          -2.07253323597465    1.25095199040442    1.85364261745300
H          -1.90396054100768    1.65896301905601    2.70440856189248
H          -1.25337833482165    1.35753019941468    1.33038089848740
O          -1.25380764180214    0.41955484982746   -1.75721079316696
H          -1.17509047418438   -0.87394382866320   -1.15007995665511
H          -0.45824546196584    0.40284809171103   -2.35455167191982
O          -1.50678813168265   -1.34965126578032    1.78749893538887
H          -0.61094661672753   -1.12395519441008    2.11998833228438
H          -1.99462645054681   -0.49748499282025    1.83557658150382
O          -0.85799169975750   -1.74052331373905   -0.59248476303182
H           0.12898657874853   -1.54348817903403   -0.44343403926716
H          -1.25996290646699   -1.66242342784615    0.38540494061136
N           1.21374455518994    0.26764298761625   -2.73866360734976
H           1.67997142279053    1.15625488730717   -2.87053833310476
H           1.53633646385783   -0.36199309302224   -3.46258766267092
H           1.51733086561208   -0.10728143488791   -1.84009130562139
