    23
        -45.36616214  Gyration_radius:  2.32865907917 Dipole_moment: 3.091
 S           0.29541199823304   -0.63853830591846   -1.46403471832145
O          -0.54204511236992   -0.92446468168696   -2.60156480360133
O           0.00574477375929   -1.43030055623951   -0.28107757982868
O           0.36324600100601    0.78421010334337   -1.13593793540380
O           1.77322694675346   -1.04419260948385   -1.92325058591752
H           1.64935372626203   -1.29168951017902   -2.83466567831779
H          -0.26607696479785    1.36394784184412    0.08752016157339
O           0.97453902726766    0.99885964780460    2.71448707685435
H           0.62770375474736    0.31362726228559    3.28963091645698
H           1.60779515790414    0.54296884645523    2.07273741647738
O          -2.14895140561376   -0.47819090983119    0.89382358899213
H          -1.40356471407807   -1.04035255084010    0.58309226476153
H          -2.66507347987542   -0.31408113284099    0.07418256034306
O          -2.76324908022314    0.14029400632540   -1.61235592287065
H          -2.71742078368944    1.05184823377187   -1.90698130933375
H          -2.03580050868762   -0.32687238441485   -2.07113832757274
O          -0.76013015709424    1.58312552880149    0.96573439382164
H          -0.06503959825517    1.44814462789607    1.72479306135831
H          -1.44614693207613    0.76163496399343    1.03932590662245
N           2.31264074580569   -0.24523235407823    0.84031480830744
H           2.43774298722488    0.40454246442639    0.07249379309091
H           1.59153127834422   -0.89348052423188    0.52786100771758
H           3.17456230948680   -0.76580799714006    0.94500994483419
