    23
        -45.35645871  Gyration_radius:  2.53686083351 Dipole_moment: 3.139
 S          -0.84076676761655   -0.12766557314613    0.14245156667739
O          -2.20456343760668    0.27397865388713    0.02796727538410
O           0.11878878094180    0.79159899181378   -0.43123752540790
O          -0.62942873415013   -1.52243558723297   -0.47413941529067
O          -0.49000004342788   -0.33416930061536    1.61964043484108
H           0.46950878578557   -0.76059997542685    1.72426293399957
H          -1.35226386372309   -1.62283778489332   -1.19097024991875
O          -2.49286065926181   -1.33912450825546   -2.16239481098500
H          -3.02209000361148   -0.83577828861549   -1.53035826415336
H          -2.02868374112440   -0.64995728453134   -2.70961865853396
O           1.86197514217345   -1.09025108558815    2.00224108628438
H           1.98268678308317   -0.49232850433907    2.75980465290277
H           2.33425005463533   -0.66841358137225    1.24392255365226
O           2.70908377127892    0.41971181647487   -0.00133859822741
H           3.04997035562983    1.27864489742212    0.25657463341204
H           1.78157858137010    0.56902214863081   -0.28197351291610
O           1.08296040749805    0.91101637601468    3.71902759806308
H           0.77029566801663    0.77710584821982    4.61567318349538
H           0.31177384282675    0.83954115669651    3.14289462505816
N          -1.02538748124996    0.68118014496231   -3.10553569352222
H          -1.51424276424492    1.52767570941649   -3.36923611701670
H          -0.29633887295975    0.52080672349977   -3.78964705859058
H          -0.57624579363262    0.85327900667508   -2.20801064921626
