    23
        -45.36855397  Gyration_radius:  2.32374003367 Dipole_moment: 6.123
 S           1.35425720301438    0.44598282423630    0.96705620378229
O           1.22812150437902    1.10887311716403   -0.31790285884014
O           0.52961972289264   -0.73958261360314    1.08218292720990
O           1.13777694327794    1.35485046396774    2.08707318285636
O           2.85645713228919   -0.05656920054526    1.06823044594943
H           3.38036231924984    0.73763258072430    1.00773771333333
H          -0.37999337976349    1.14599790098651    2.30219333918501
O          -1.74346759317898   -0.58197523016258   -1.91176180653613
H          -0.97946555322392   -0.33831478792325   -2.47558096849244
H          -1.44669355052491   -1.39285109526938   -1.47989601349495
O          -1.41815800029458    1.48300426248254   -0.33158531337798
H          -0.44656465898199    1.53594320555140   -0.43868580198492
H          -1.68825959504769    0.73073011263088   -0.92976805928017
O           0.23680229560842   -2.39997399691040   -0.94274273832754
H           0.60737292543142   -3.24266965226389   -0.67864222817156
H           0.37033592009487   -1.79187888473365   -0.18255537827472
O           0.82262741374708   -0.25013573059591   -2.68719414831953
H           0.88484137753418   -1.14436930403104   -2.32427263733852
H           1.06967211609778    0.33841322499953   -1.95573340233377
N          -1.38885562426853    0.83972445462071    2.12889400722025
H          -1.54321607553592    1.12863844972738    1.05915216541223
H          -2.05315043760034    1.26539520788074    2.76715235682800
H          -1.39042239520319   -0.17686532893894    2.18664899299991
