    23
        -45.36811650  Gyration_radius:  2.30214360384 Dipole_moment: 2.789
 S           1.03059030671201    0.44325606117298   -0.43491145713461
O           1.13073986132437   -0.15202986506514   -1.74734566881098
O           1.27211282805969   -0.48791370542091    0.65771806070744
O          -0.27374568784021    1.10941396271953   -0.26129080377403
O           2.12171512268400    1.55475956551141   -0.29163685955973
H           1.93265381410148    2.14992168217446   -1.04348207436765
H          -1.08988646868866    0.72826160405454    0.88836607727454
O           0.85577826674330    2.43457711608046   -2.43746762063914
H           0.04007449248916    2.48503690142771   -1.92687780266451
H           0.96216575059995    1.49351964051445   -2.64807449615095
O          -1.50596921543164    0.28228537774145    1.73761915440824
H          -1.38688821093803   -0.77752863361975    1.48165282638250
H          -0.79026140357203    0.44081057828694    2.43453103067866
O           0.69829203291591    0.45652663922266    3.04149582166622
H           1.10888601913440    0.18148431974331    2.18883541544723
H           0.98022826128758   -0.18285734581506    3.69869935715630
O          -0.89920753436267   -1.99954260780527    1.00542841654987
H           0.04171722952775   -1.73747840359513    0.94798192438951
H          -1.18425791279139   -2.02626276897266    0.04074252608309
N          -1.28640488182447   -1.68555288801451   -1.57076999873623
H          -0.40557416841861   -1.19255745327169   -1.72773261886295
H          -2.03410247680907   -1.05024691048744   -1.82075284428280
H          -1.31865602489219   -2.46788285655657   -2.21272838576471
