    23
        -45.38062445  Gyration_radius:  2.25476196782 Dipole_moment: 4.360
 S           1.78772635859771    0.52679998358805   -0.34320210892838
O           0.68222864273287    1.38387457624263   -0.76259668170755
O           2.10064570492370   -0.51414029781767   -1.29041641756862
O           1.58855982703816    0.02691903134923    1.01229362877873
O           3.05401443736097    1.48064731530482   -0.29005856005567
H           3.76348506269962    0.85764980439639   -0.40468356249014
H           0.57659019275547   -1.34578231714435    1.25738268491715
O          -1.53219872381097    0.34745095902313   -1.62624070146927
H          -0.66053227856326    0.74703658500029   -1.36740699084589
H          -1.84425582238228    0.85692129140045   -2.37539711814791
O          -0.05900975957117   -2.07901911316579   -1.45324722363442
H           0.80972268761627   -1.63234475316471   -1.50384449629509
H          -0.70181256546983   -1.41863333653321   -1.74296220783716
O          -0.20230806348842   -1.93520575831662    1.17645914669509
H          -0.17395006496627   -2.23400149299719    0.23421754492253
H          -1.29946566231360   -0.91735515770146    1.17170354293396
O          -0.20178364390908    1.83710406624534    1.67880336935722
H           0.52874264203485    1.21482563026320    1.85617702612600
H           0.00111574734808    2.10003950436274    0.76339419555813
N          -1.94406504795308   -0.04027785028926    1.04526536059822
H          -2.82865625369567   -0.13854598538919    1.52948606362235
H          -2.07213033746248    0.09258025776506    0.02729249269601
H          -1.37266309951669    0.78345706757709    1.40758100277099
