    23
        -45.34552477  Gyration_radius:  2.37589856551 Dipole_moment: 3.435
 S           0.96014859761076    1.37620783145067    0.65218018381653
O          -0.32526071389314    1.29276464413603    1.28288080228888
O           0.96198484453438    1.55619167801061   -0.76088532581013
O           1.84182627946425    0.19872685122377    1.06382607494259
O           1.73498037239950    2.57208722531676    1.30165793384802
H           1.60974797313153    2.47729107206473    2.24277147739731
H           1.50365164290107   -0.65955116295038    0.58538803257746
O          -1.16338652877475    0.69463607305725   -2.42712924498370
H          -0.57920622707231    1.33658474649244   -2.00435944705990
H          -1.73302561736341    0.36060429741269   -1.70993562810850
O           1.06571556247478   -0.72419981282662   -2.54721298552129
H           0.15073803376831   -0.37371337976896   -2.68131045676378
H           1.58713811823342    0.06648790949070   -2.37503441125666
O          -2.41992323636448    0.16499964635162   -0.05640099257155
H          -3.20314126342953    0.68013211540287    0.14487574599771
H          -1.69996061428032    0.53401893010067    0.48421033488294
O           1.02076409351949   -1.78631083396524   -0.20772829897553
H           1.64339246481664   -2.51747997930851   -0.19792450338451
H           0.99300998204518   -1.44223475813938   -1.16070107283072
N          -0.90544990415404   -1.57752770852942    2.34015845010502
H          -1.89517087830905   -1.69722258153707    2.15625255183090
H          -0.41898687711312   -1.95361949988130    1.53409572295571
H          -0.72958611414977   -0.57887331360108    2.34032505662931
