    23
        -45.35630131  Gyration_radius:  2.33198726318 Dipole_moment: 5.502
 S          -1.04058605350647    1.53779516771941    0.33455670135078
O          -0.67040189294736    0.78544602035803    1.48818884041917
O          -1.46999298147330    0.79475882073433   -0.81166411260249
O           0.05276553008646    2.53204949358724   -0.05709444420490
O          -2.20081766052451    2.50852599876044    0.74426436049457
H          -2.51865836719411    2.89700935092490   -0.06746735405197
H           0.92725390845180    2.01348237361648   -0.30739225862317
O           0.52291808825381   -0.61853724636178   -2.14031294117882
H           1.24026148714670   -0.00376280065029   -1.95242260717233
H          -0.28190500327867   -0.19699573168381   -1.80543438987307
O           0.88583960038056   -2.45873436755001   -0.13525529442978
H          -0.03782108056980   -2.47499155780272    0.19002571289552
H           0.83267649110184   -2.00338736739768   -0.99610384407137
O           2.09590162153958    1.20934074649277   -0.58424706679929
H           2.05516197947748    0.48838684623897    0.16722387684938
H           2.89954720486865    1.71145791505001   -0.43170927439649
O           1.80044427500787   -0.46904924073687    1.26581051883427
H           1.55525260952279   -1.32318496146849    0.79618414308868
H           0.97349451712856   -0.14136408577651    1.64626596206253
N          -1.68647127326499   -1.86207087314752    0.62369195460440
H          -1.44443873576460   -1.03407163433500    1.15853285852399
H          -2.41156216316738   -2.36015300510219    1.12460207982601
H          -2.07886210129028   -1.53194986146258   -0.25024344154321
