    23
        -45.37175362  Gyration_radius:  2.30677811078 Dipole_moment: 5.767
 S           0.87018695958394   -1.38308304381499   -0.28662735706084
O           1.96016885028293   -1.44954832949571   -1.22433122053715
O          -0.42691066345942   -1.17137977076450   -0.92595372975193
O           1.09769346404056   -0.08854970169537    0.62826942651225
O           0.83028757567681   -2.45294029959730    0.70417493039327
H           0.07700669798198   -1.87199434241060    1.80773541748458
H           1.14267385484497    0.67986871034990    0.02029995086657
O           1.08096101406085    1.89466394678797   -1.15265162137842
H           1.94169291955912    2.29536851157842   -1.28601417297412
H           0.92506171103722    1.29198627794359   -1.94359549880240
O          -1.27958543968288    2.39041722350931    0.23354882871844
H          -1.87507496395575    2.76921102944894   -0.41594861839971
H          -0.42126242085658    2.28927850673566   -0.20910712661968
O          -2.05122171518642   -0.14550398492930    0.82522934738669
H          -1.84069993673197    0.80677408368830    0.72980404752485
H          -1.57433409399488   -0.57990943308418    0.07425098209752
O           0.74262955500558    0.08889773188454   -2.97316326049277
H          -0.07126586377451   -0.31327097397778   -2.63328144863663
H           1.42385923539376   -0.50803158935635   -2.60050851684369
N          -0.50244384920008   -1.28725463041210    2.53163410231818
H           0.12712763446561   -0.61265239960107    2.95594779436091
H          -0.93837253058842   -1.88037553712090    3.22993702620254
H          -1.23817800443795   -0.76197197567907    1.91035070757840
