    23
        -45.35798834  Gyration_radius:  2.36970606734 Dipole_moment: 2.139
 S          -1.04694376088846    0.94942074394214   -0.78894639536556
O          -2.17920943680887    1.75542017611067   -1.10697905324853
O          -0.70296740652689    0.92780565206817    0.61574477612775
O           0.22241909770066    1.45890586752416   -1.56308743321618
O          -1.21444366836296   -0.45569670925224   -1.31429088626890
H          -0.28339023450605   -0.98560826723281   -1.43784532371743
H           0.27336720835341    2.40603570893671   -1.31214138227655
O          -0.42862797434566    3.67740527567419   -0.33869185711655
H          -1.32722106081636    3.41897404446367   -0.59164113941962
H          -0.33829717852169    3.45721455625044    0.59290631101361
O           1.52630743239086   -2.18025831055751    0.82777185924440
H           1.90917729648586   -1.29877764428827    1.00557403898507
H           0.63493640481493   -2.16084851676898    1.25594272483317
O           0.88175864134234   -1.73531705753587   -1.58201052433373
H           0.65176827762841   -2.56616745374369   -2.00393422346550
H           1.19410152031573   -1.96669548115825   -0.62393015478414
O           1.96738196882790    0.48929494526064    0.71822861514473
H           1.02116002226025    0.69582860079252    0.81396784671197
H           2.17861394550535    0.64944451744396   -0.20489939671790
N          -0.99044708228256   -1.75532634993162    1.70945669213928
H          -1.22438812868610   -1.80878892623025    2.69299817599565
H          -1.73695943579739   -2.20051674262437    1.19022985652849
H          -0.98809647803572   -0.77174864917361    1.44557689344742
