    23
        -45.37151887  Gyration_radius:  2.43130094476 Dipole_moment: 3.404
 S          -1.07438084961607    0.68540966030505   -1.63544049704948
O          -1.48232403299804   -0.70067266198409   -1.54849042765913
O           0.36433305593465    0.85695538651523   -1.77484197986120
O          -1.60198889348888    1.48638014638820   -0.53468925154629
O          -1.71062673967098    1.26290928820877   -2.96757730264265
H          -2.59643992861166    0.91451087038882   -2.94038886607946
H          -0.85537720271895    0.98626192515839    0.74277071581754
O          -0.01680623431399   -1.87896457223707    0.29194077219279
H           0.84817582163051   -1.86662090470994   -0.16952773503547
H          -0.66081016024648   -1.62952377652277   -0.40923626702243
O           2.11610669255951   -1.08434546927498   -1.11617270484334
H           1.50843262701543   -0.46517703104949   -1.56358010700399
H           2.75456710655030   -0.52958203538766   -0.66146205693631
O           1.86956880800942    1.84878489816939    0.16124064736801
H           1.35928463742859    1.54714410917091   -0.62619587311761
H           1.96074363336954    2.79768627352112    0.06591382624245
O          -0.89446742977772   -1.59081003927986    3.01085796931447
H          -0.65436227463339   -2.00384666368028    2.16961512081080
H          -1.38764102866329   -2.24688887964254    3.50416839564270
N          -0.13634012934001    0.53567399424994    1.38132067068299
H          -0.00805981076062   -0.45439216189299    1.01139228330736
H          -0.44710975345134    0.46169129300300    2.34838686659184
H           0.74552208580967    1.06741635061169    1.25999578081841
