    23
        -45.38031824  Gyration_radius:  2.32445035276 Dipole_moment: 6.196
 S          -1.32567477291504    0.41113654035964   -0.02841710199154
O          -0.69599098031969    0.34386656723789    1.28034842181796
O          -1.25722621640723   -0.89110938805957   -0.70970521642505
O          -0.76103102077143    1.45259119471843   -0.86947333473978
O          -2.83464137260452    0.72607474723380    0.21669593049219
H          -3.19172241768347    0.77566835264492   -0.69243599265930
H           0.95189785493739    1.38140172217773   -0.99131625245393
O          -2.80763625820223    0.61559006871498   -2.42146850333538
H          -2.06106927885686    1.21963073946570   -2.29243419688438
H          -2.43559500332168   -0.26586964868146   -2.29320062050213
O           1.87530353861783    1.08788600374829   -0.83648269036935
H           1.66980296185627   -0.41371713490384   -0.74375975715421
H           2.05545992494022    1.36954040812931    0.08631769203337
O           1.73034418705918    1.43256607360287    1.81749587711701
H           0.77684579363730    1.26216501372695    1.71154532527037
H           2.06002374902323    0.71208293717713    2.36047122782041
O           0.92341476926743   -1.57897128948804    2.07812318823678
H           0.43914088444251   -2.25886252389173    2.54866713044986
H           0.26826576398607   -0.86855168389378    1.88056843633462
N           1.28381684986419   -1.41808258913373   -0.58340565893264
H           1.70961944151653   -2.10283673189345   -1.19789547450188
H           0.23427630499408   -1.32815227046709   -0.74214062231469
H           1.39237529693337   -1.66404710852793    0.42190221268030
