    23
        -45.38031829  Gyration_radius:  2.32442829245 Dipole_moment: 6.197
 S          -0.25909545493616   -1.12537454390958   -0.77088394792281
O           1.05453166937826   -1.32190020881313   -0.13813759507209
O          -0.31686548954618    0.15596053088760   -1.45554377443768
O          -1.32118137273030   -1.28681834614783    0.20728628798482
O          -0.41373902258361   -2.22583768945118   -1.86693193576023
H          -0.38533764376495   -3.05186516281840   -1.34403653389929
H          -1.43652763637114    0.02102475854386    1.31672704581357
O          -1.25445827755235    0.88504873380454    1.74460750172901
H           0.25556155508742    0.94686745132746    1.59705754383797
H          -1.59245893581082    1.53964799720364    1.09605613271065
O          -0.19767759666497   -3.74229567818588    0.28392241814740
H           0.63070691484126   -3.26822294514665    0.42800249253531
H          -0.88592019130508   -3.13772575157005    0.59947282379760
O           1.37773492714201    2.14263035558963   -1.08414802836921
H           2.08717245764561    2.11018085260226   -1.72746692418382
H           0.75400120362630    1.42028805530971   -1.33337342463006
O          -1.69038502112405    2.28983089471853   -0.49580401784723
H          -1.41083992940609    1.48357194284894   -0.96616365152339
H          -1.03402724731783    2.95534774438775   -0.71684494626470
N           1.28907315352678    0.84731309543403    1.27249136468538
H           1.47913229153741    1.55368548330222    0.53233358027107
H           1.32340746446356   -0.09665140457516    0.77992462597772
H           1.94719219185929    0.90529383466120    2.04145298242065
