    23
        -45.36140461  Gyration_radius:  2.48261172391 Dipole_moment: 3.038
 S           0.75511682400029    0.68250931066748    0.98252928225384
O          -0.52500284286056    1.29851479365831    0.73988430050634
O           1.87740793717006    1.39710607634685    0.45999130148028
O           0.70961637263238   -0.75381267780575    0.38265673658797
O           0.97491993115189    0.41772612015832    2.46792193930311
H           0.41328229613048   -0.40005545004862    2.73922829476482
H           0.01834340652949   -0.72720700316072   -0.37074150508107
O           0.50748778777544    0.33935717986231   -3.40504451306698
H           0.82434151613481   -0.39201811204666   -3.93770700638271
H           1.30084400357770    0.70718973684009   -2.95111582374138
O           2.64226730995292    1.24358400378259   -2.08475629732760
H           2.42689115977325    1.24753412067872   -1.13002581644456
H           2.96221570235746    2.12654438549938   -2.27984733910675
O          -0.42271062739712   -1.64882876869554    2.87213129185929
H          -1.27971120217182   -1.36166989319906    2.43034693363439
H           0.00410276763711   -2.25487065183541    2.26036094168831
O          -1.04495679279115   -0.32215907452843   -1.37722337582768
H          -0.55001291327884   -0.09630313153351   -2.20605046174559
H          -1.22058521895782    0.52097812214738   -0.93566957985816
N          -2.44728784516347   -0.66696950754624    1.50221215438558
H          -2.63009594546753   -1.12276831408669    0.61609790657152
H          -1.95980270045366    0.20498660274118    1.29713136513505
H          -3.33667090628416   -0.43936787790270    1.92768926043771
