    23
        -45.35823180  Gyration_radius:  2.40452650279 Dipole_moment: 4.225
 S           1.04281282747781   -0.68423692524930   -0.09171974679504
O           2.14940310867814   -1.09143569189241    0.72307867031949
O           1.40251398738196    0.01256592521610   -1.29879077802429
O           0.09987872076208    0.23271107505628    0.73667277264304
O           0.15516964299687   -1.87047306234874   -0.44247774945571
H          -0.67059643578486   -1.96763445382692    0.19243745848583
H           0.51276719905172    1.15734777640302    0.65701047834254
O          -1.06039379085187    0.07401001596408   -2.36689757238045
H          -0.14063921819792    0.13597160414178   -2.05160817417124
H          -1.08755766756227   -0.71010139150160   -2.91810270719111
O          -1.94787128118999   -2.06781584826997    0.88956555966648
H          -2.45942264225217   -2.74942828079123    0.44707157194432
H          -2.34245100180693   -1.17165233085281    0.60344211633026
O           3.46573724012828    1.09636994043670    1.49372069737448
H           3.58373102384753    1.02738373876425    2.44304848618368
H           3.13415045921586    0.22430472492828    1.19684437625069
O           1.44892419374539    2.33085982834648    0.27796291124248
H           1.61810458156361    2.07019395104503   -0.63552731212669
H           2.26615343912586    2.08769773915726    0.77129031882737
N          -2.78894039512949    0.21682432723011   -0.04267681765307
H          -2.27773107648852    0.24142389941193   -0.92692305829842
H          -2.35871535456576    0.90618391255423    0.56125256005290
H          -3.74502754025086    0.49892951602136   -0.21867407158585
