    23
        -45.35637941  Gyration_radius:  2.55563202008 Dipole_moment: 2.966
 S           0.67772219317548   -0.16555770423835    0.37774651171375
O           1.83932320036747   -0.98908939099277    0.47160034216047
O          -0.09768979501561   -0.34534430454127   -0.83094616744677
O           1.02837075302161    1.32669778620805    0.51719222483116
O          -0.20690424664061   -0.43315479599281    1.59889736874085
H          -1.04516137140987    0.20369886189193    1.60684708607846
H           1.23568700659570    1.63712385692894   -0.43327848356088
O          -2.65759683665447    0.32485242261886   -0.97299692042142
H          -1.70724197524856    0.09141871831993   -1.03355483101447
H          -3.14374722689890   -0.46881863450140   -1.20466878072778
O           1.47044892772264    1.66824722693430   -1.94370846923349
H           0.73462292237996    1.09376725877694   -2.18465399866309
H           2.28649991905013    1.09590832629979   -2.00700394896111
O          -2.60168522542555   -1.73490877831798    2.58293662554369
H          -2.60923873760535   -1.97870622002106    3.51032285874263
H          -1.67676762709459   -1.72042251648826    2.30752583128429
O          -2.36747218789068    0.82758349249919    1.61041881131403
H          -2.61066256378832    0.80585726204632    0.65369331696221
H          -2.84944923251760    0.09238000414982    2.02610631606704
N           3.42491383745894   -0.12129438209543   -1.75727848126381
H           3.54192336754795   -0.83001786978465   -2.47079460116061
H           2.98635927103942   -0.56489001889185   -0.94952684326730
H           4.34774561778928    0.18466938919978   -1.47487576765472
