    23
        -45.35637942  Gyration_radius:  2.55570469183 Dipole_moment: 2.967
 S          -0.54853653786710    0.55903365838817   -0.12188223297112
O           0.34616774193477   -0.05562577031124    0.83524393030644
O          -1.16564679903957    1.76557775997323    0.32510794237780
O          -1.59331140075755   -0.48470443467764   -0.55598629402708
O           0.21148064561724    0.85410311425492   -1.41829775723924
H           0.62729818590394   -0.02452079583449   -1.82272250530438
H          -1.81788766995546   -1.00063780945801    0.29609550559311
O           2.80976535738634    1.28897629992674   -2.62580489013580
H           2.83138456401965    1.82593288171231   -3.41999031568483
H           2.03187445619928    1.56508714186949   -2.12562635662319
O          -1.86748808220369   -1.47572728824130    1.74857349296079
H          -2.29017945877890   -0.68018387256062    2.17989861030718
H          -0.92357151223668   -1.39311998358275    1.92682949645779
O           2.25362717085597   -1.74005747632085    0.09551505372773
H           1.55071455723532   -1.16875111159664    0.47080292555871
H           3.08706188675172   -1.36839132761011    0.39076714631081
O           1.46908668653819   -1.09711128668455   -2.35023994207645
H           2.19780834427174   -0.53695773575961   -2.66778883927520
H           1.79721459009264   -1.52914498356125   -1.52526661420348
N          -2.71370246047139    0.90077108079605    2.58121912286964
H          -2.20803824387322    1.37881495103306    1.83463618314237
H          -2.39124135610947    1.28065215347184    3.46261791554481
H          -3.69388069551872    1.13598481476625    2.48629844240707
