    23
        -45.36440180  Gyration_radius:  2.41220962548 Dipole_moment: 2.096
 S           0.14177239274847    0.27960777905094    1.10438958899644
O           0.51600145508541    1.42081253670455    0.29067410755207
O           1.29551182608752   -0.47339277007194    1.56861088184365
O          -0.78143385410125   -0.60865471690475    0.35674755120103
O          -0.65364196383760    0.80412373317680    2.32622712476960
H          -0.82742724811620   -0.02725512072966    2.85686823294238
H          -0.23050805556565   -1.01369202570687   -0.81196869807650
O          -1.13852937370080    2.38876253116869   -1.48120539512243
H          -0.59254931033925    2.02891774150197   -0.74119835979754
H          -0.83555854273033    3.28931733390018   -1.61137446878040
O           0.33005691448977   -1.21069432781793   -1.74024888377890
H           1.27688779827090   -0.90736556298406   -1.48552351294010
H          -0.03764609819078   -0.53511836903658   -2.42274965345805
O          -0.67410051509211    0.55185494880479   -3.28870491073538
H          -1.53247752828204    0.27386351239601   -3.61420847557563
H          -0.85094233814786    1.29479265779643   -2.65014630198721
O           2.48534181257222   -0.25613108117622   -0.76478333221338
H           2.35354201566855    0.69667149787596   -0.82697513276124
H           2.25618685711573   -0.45876202860998    0.17119959509982
N          -0.70677835150844   -1.63504372267072    3.22522043647333
H          -0.71150570531984   -2.11367209221758    4.11684926515585
H           0.23256824064101   -1.65921410322326    2.83721209400614
H          -1.31477042776785   -2.12972834120910    2.58508824718883
