    23
        -45.34353736  Gyration_radius:  2.42097813642 Dipole_moment: 2.949
 S           1.32221238937550   -1.30847906236653   -0.80459416173216
O           1.82434446155821   -1.72608182278427    0.45875362468183
O           1.50233158765624    0.08033575473490   -1.13134859699494
O          -0.13878849645675   -1.71189098095529   -0.99158954946902
O           2.01132613065138   -2.15439402374404   -1.92736263454713
H           1.67881377691580   -1.81156817420455   -2.75347852460557
H          -0.70991788574859   -1.45646210755919   -0.16186784101682
O           1.42833506836723    1.54471214981727    1.29078501986105
H           1.78989700060964    1.02340249234279    0.56236886690105
H           0.75398409670324    2.10306015163663    0.88000723147284
O           0.56544415195321   -0.60708020055822    2.62675929179009
H           1.20495953403645   -1.18782307371683    2.19008082062791
H           0.85126739537322    0.29667005199086    2.37021852310654
O          -0.04392714748508    2.36209044255140   -0.97715941235718
H           0.23172595231556    3.01000218904867   -1.62748668306005
H           0.45000566466016    1.54868819734327   -1.16912744254231
O          -1.41466570330343   -1.14420820215618    1.08709297698029
H          -0.69942371602645   -0.88617600167267    1.76018364670037
H          -1.83731894631176   -1.93481922216433    1.43071504246932
N          -2.75490697404974    0.87496758434957   -1.03317076758071
H          -2.55219502321039    0.16898825634350   -0.33461286638790
H          -3.52097671427382    1.43357468411318   -0.67461723541140
H          -1.94252659331142    1.48249090761627   -1.07054931888355
