    23
        -45.36140465  Gyration_radius:  2.48246583234 Dipole_moment: 3.041
 S           0.74012766532707    0.32185713478075    1.16207894413110
O           1.57935832236604    0.14251036122362    0.00421873077248
O           0.80253848188905   -0.73514922238164    2.12228201715820
O          -0.72315318785238    0.50350849385568    0.66137229681513
O           1.02311635207520    1.64932930886805    1.85679379647903
H           0.59762070477080    2.40394036477601    1.30243219927582
H          -0.77839342550801    0.02430809370789   -0.24056185620173
O          -1.19638316972826   -3.16770938317834   -0.70957004753927
H          -2.13672885408734   -3.35218039271095   -0.73786514218726
H          -0.95235678618826   -3.15135724968068    0.24490151686008
O          -0.57497214024209   -2.99982739225688    1.87974915359995
H          -0.12701657568013   -2.14212426736811    2.02696067318214
H           0.00835998399959   -3.66236769105354    2.25506240372709
O          -0.16910176506454    3.31310641764790    0.37411329301314
H           0.17437009567718    3.01521000818670   -0.52334116060438
H          -1.06683673099686    2.97677939876221    0.44248224257768
O          -0.48847372277017   -0.75602681925669   -1.51136427599633
H           0.46891573168425   -0.73694592579066   -1.37079605993491
H          -0.77235965446659   -1.68628659248272   -1.31911395828763
N           0.77772991332442    2.19043536613714   -1.81277269029787
H           1.29927729673268    1.48467525618094   -1.29324030018062
H           1.42004550633957    2.66326002364220   -2.43548942932488
H           0.09431594839117    1.70105470839624   -2.37833237704834
