    23
        -45.33928435  Gyration_radius:  2.61721261733 Dipole_moment: 3.481
 S           0.23042301640045    2.27012766904103    0.36457238597972
O           0.41873893441358    2.32206158870090   -1.05250854102818
O           1.37637937203437    1.87548747329445    1.12438360425575
O          -0.98210604466760    1.40418247773804    0.72031755964688
O          -0.27929207204191    3.66036967649393    0.87400810084021
H          -1.15169999692251    3.49547446713846    1.22377983293615
H          -0.83552930982304    0.39208375952458    0.44819031065663
O           2.67064852186042   -1.55632345600791   -1.49423654966682
H           2.60375804298444   -1.32308222924841   -0.56153812681303
H           1.99454883531082   -1.03905027020310   -1.94604506614705
O           0.38223655533220    0.00134984655286   -2.34213891309026
H           0.47783234074474    0.90583628759358   -1.98030320568656
H           0.04205071162477    0.09211418301466   -3.23386881150938
O          -0.46901790458360   -0.92890836589281    0.01593526429392
H          -0.23636392275772   -0.80522009339471   -0.92902280058160
H           0.38170721660339   -1.09347402992827    0.47587485564599
O           1.93067044061493   -0.72071181060607    1.17730562138301
H           1.87074763740689    0.25627705634991    1.18586248599151
H           2.34561934858258   -0.98197759653879    2.00114810529143
N          -3.34009703061363   -1.84464849900972    1.09005448117865
H          -3.82080238554010   -2.27263516455091    0.30783069242159
H          -3.17613495751144   -2.57234610052712    1.77539672789953
H          -2.43431735945259   -1.53698685953621    0.75500198610321
