    23
        -45.37326489  Gyration_radius:  2.28524191549 Dipole_moment: 5.851
 S          -1.03512858635119   -0.21767110185821    0.97572150359863
O          -0.71670489029989   -1.22145225088812   -0.03701162248796
O          -2.27974137795731    0.45903155941354    0.73325249343579
O           0.13991907460550    0.84723092417364    0.90803840240808
O          -0.89508791078734   -0.75194006349491    2.33148918950035
H           0.50051203518714   -0.89362504648816    2.45961333823346
H           0.46588272461049    0.96006178808640   -0.02460989578686
O          -2.31227230143173    1.79365245462878   -1.53057938567658
H          -2.31955584038934    1.35893388361544   -0.64658000990467
H          -3.22890968788315    1.99442815370321   -1.72568748211753
O          -0.84857957812625   -0.23704723081054   -2.53069100136390
H          -1.48603001320717    0.49119246346471   -2.39045880591609
H          -0.94362774952908   -0.80539795441742   -1.74359130226690
O           1.15168527505466    1.02150126711529   -1.49541024808103
H           0.45694490970618    0.51052226890227   -2.01887822516919
H           1.09727936856437    1.92530456919361   -1.81083676672638
O           1.87672182963736   -1.37888651802439   -0.13321590580300
H           2.05673100125261   -0.60512628580306   -0.68249583898833
H           0.89829167859356   -1.50446240265910   -0.20623551410817
N           1.61797029597265   -0.93465621125733    2.42898290677279
H           1.97562030827098   -1.66711432686128    3.03403313946778
H           1.96953326264863   -0.02372234612789    2.70826707011809
H           1.85854617186743   -1.12075759351156    1.39688398089947
