    23
        -45.37326475  Gyration_radius:  2.28569129251 Dipole_moment: 5.852
 S           0.38306758345341   -0.96065971769279    0.99910020652717
O           1.48824752875335   -1.81487034479077    0.66031588294670
O          -0.78784257794359   -1.16672857788771    0.15006567607262
O           0.82100226669639    0.54711761070580    0.76715251516065
O           0.03079786668195   -0.96903370475229    2.42017791333120
H          -0.67462473625832    0.24018224699574    2.56634315281800
H           0.65273526577820    0.82694612846509   -0.17218536544355
O           2.38342298576845   -1.43919627486832   -1.78202005571361
H           2.92541317537803   -2.19821207396602   -2.00274532823470
H           2.11964700599309   -1.56759575486112   -0.84155449571715
O          -2.05521063294197    1.10269285136877    0.07612262733454
H          -1.75747787743573    0.16086136258827    0.02485714170713
H          -1.51765638058430    1.55608918697168   -0.58595298577932
O           0.21154665528548    1.37317189132197   -1.63604863037684
H          -0.01681275694476    0.49345694075407   -2.07422450593590
H           0.99776198814614    1.68763026712972   -2.08572039851296
O          -0.19262138516255   -1.03643686240149   -2.46416106004006
H          -0.55251625655232   -1.31049659724093   -1.59992854800860
H           0.75008429951880   -1.29516317582492   -2.43476046766921
N          -1.19391523098123    1.23125933401787    2.54044563319574
H          -1.60607766556460    1.29993084585736    1.54918282788801
H          -0.49187617157761    1.95266731092851    2.67488339468079
H          -1.91709493947998    1.28638712717244    3.25065486975527
