    23
        -45.37151962  Gyration_radius:  2.40887339681 Dipole_moment: 6.161
 S          -0.63452294779782   -0.34680571005928    2.04490407563830
O          -0.38452447516702    1.05015447163607    2.30749168094510
O           0.57433555439851   -1.12279776019344    1.82391947670593
O          -1.60026059494074   -0.50645223225522    0.95160990999351
O          -1.31018650085992   -0.96721525643107    3.34117650364965
H          -1.92769408104192   -0.30865343688962    3.64848789326107
H          -1.17410233687951    0.68076131960719    0.03055108603577
O          -0.38475895842108    0.86903324896234   -3.01661692455500
H           0.06514840549915    1.37052058279126   -3.69759834924447
H           0.24177070469776    0.14168339599260   -2.74825660979700
O          -0.14318459082210   -2.43050870172014   -0.41326558279607
H          -1.02423856671067   -2.04676218541054   -0.33374990900213
H           0.27260412331906   -2.21324087905245    0.43894959794908
O           1.80863785793695    0.72814954028613    0.46573089781241
H           1.44982966453373   -0.02818756817386    0.99321355563011
H           2.17512412292976    1.32779452726771    1.11930314782519
O           1.32200697489310   -0.81405112303650   -1.97152783462592
H           1.79433662088563   -0.35392593476991   -1.26898248134242
H           0.81367865727260   -1.52548674482194   -1.51897747936049
N          -0.63268384632823    1.46141870805624   -0.44961193471556
H          -0.99503062062065    2.35586761209829   -0.13628555141500
H          -0.65946594043648    1.34699904822689   -1.49924703313205
H           0.35318075372448    1.33170506800243   -0.11121813546369
