    23
        -45.37151946  Gyration_radius:  2.40916594682 Dipole_moment: 6.166
 S           0.65828295486124   -0.06292710429503    2.06623767346258
O           0.84654315768169    1.36641327681179    1.99825077729451
O           1.61881575612252   -0.81482266965080    1.27601648712595
O          -0.72617932257178   -0.42234996551645    1.73899061774541
O           0.89980254023084   -0.50834381732031    3.57127803615114
H           0.49712709002342    0.17024971569052    4.10693314446900
H          -1.02916370584738    0.62896406902019    0.62488157579220
O          -2.09874837115562    0.39166205412660   -2.33285711449873
H          -1.34791143181270   -0.26080502178095   -2.39731584306042
H          -2.16726753926242    0.80497173914671   -3.19432523195582
O          -0.06248201903334   -2.46901082913264   -0.01487248012416
H          -0.79198993273854   -2.12042263373197    0.51032867651697
H           0.72487755785978   -2.10597073678653    0.42660701441942
O           0.08567543772943   -1.04480625261979   -2.28164531852672
H           0.81067818012289   -0.46602603725918   -2.02129856403063
H           0.00362408819770   -1.70099498467677   -1.55229705309171
O           1.65964459851987    0.86179585588313   -0.71927225368839
H           1.74753939760089    0.17822283181462   -0.00929802047280
H           2.25373941880687    1.56674696949884   -0.45251105723113
N          -0.94373519662387    1.35012262216017   -0.15355916083924
H          -1.53670243789041    1.07877103823539   -0.98440534761700
H           0.07051462619329    1.31251864994320   -0.42401824442638
H          -1.17268481700097    2.26604123045115    0.21815168656746
