    23
        -45.38023203  Gyration_radius:  2.32690720871 Dipole_moment: 3.133
 S          -1.21332686689409   -0.35866046131434    0.66217052688182
O          -0.63635404681384    0.97689850132309    0.51179360889853
O          -0.51165377307061   -1.14299574789707    1.64388309589937
O          -1.25766739855869   -1.02292443741112   -0.65641703638228
O          -2.68784326907691   -0.19227370921276    1.14096993117099
H          -3.14243578286129    0.17863828984659    0.35841523915981
H           0.24292625020802   -1.07751718819866   -1.14751923569808
O           2.08581363299994   -1.31392141091174    1.15538200190120
H           1.17369175718083   -1.47379103528460    1.47973991258352
H           2.25246216921576   -0.38654084629521    1.41691440957255
O          -3.40205527800257    0.31271423703504   -1.35697991855350
H          -4.07623875644685   -0.27151305110515   -1.71121949115453
H          -2.56271124989470   -0.19138002006191   -1.36424882905904
O           1.72329707346065    1.31947447496102    1.66675809092141
H           1.62746981921217    1.53145170811134    2.59619722340975
H           0.80690550295361    1.21282593575876    1.32193643621403
O           1.23930417988680    1.72068896461315   -1.23791614131765
H           0.40018262726403    1.63019133233915   -0.74029563340954
H           1.87105299636793    2.03509751357546   -0.58283383039096
N           1.28115652050244   -0.92970704012938   -1.29212472365401
H           1.63604808310828   -1.48131272971001   -2.06526522262707
H           1.74449065408243   -1.18384388281089   -0.35418847088627
H           1.40548514518404    0.10840061279974   -1.44515195348527
