    23
        -45.38023198  Gyration_radius:  2.32699365655 Dipole_moment: 3.135
 S          -0.80997612862278   -0.54115115417402    1.04394656829182
O           0.29711292400293   -1.19028709199254    0.34233724714075
O          -1.99750066731165   -0.47348893103314    0.23368418856172
O          -0.37695085436402    0.79070510710936    1.51356024521482
O          -1.13730890854214   -1.38937109864914    2.31062894710715
H          -0.36524746513978   -1.24021766030934    2.89231218450105
H           0.04122421135085    1.57845566081518    0.20950618850080
O           2.18786018058273    0.00710281364084   -1.11545583772584
H           2.00810564245841   -0.47357127121796   -1.93014128744889
H           1.71339307882078   -0.50115897714354   -0.42520608766016
O           0.89758331808048   -0.24480795574523    3.55701107352793
H           0.67033907967379    0.20537784784764    4.37370787658222
H           0.60688703494321    0.33792554204525    2.82582351856679
O          -1.57916631508680    0.69815470041522   -2.10444486443310
H          -1.98948427280028    0.33369033058885   -1.29113197220975
H          -1.08228095889227   -0.06491887365190   -2.46081571344226
O          -0.07366337621019   -1.54652991647954   -2.25681597545920
H           0.01762489903029   -1.49618056776480   -1.27742507520798
H          -0.57356087048045   -2.34540323289063   -2.42968223197467
N           0.32830832658174    1.86484767652363   -0.76837942433821
H           1.18840144894607    1.29436746567618   -0.99463191517182
H           0.49573474120140    2.86260226666443   -0.83477194475604
H          -0.46743507821482    1.53385733972177   -1.41361570815593
