    23
        -45.38031828  Gyration_radius:  2.32448014578 Dipole_moment: 6.205
 S          -1.04363602748178    0.85877235260668    0.32013791942303
O          -0.70062661494844    0.75412077822045   -1.08890137148166
O           0.00297728368760    1.48859871335025    1.10687256615874
O          -1.37854087076720   -0.46131919827643    0.87660400256716
O          -2.33184513908116    1.73604040529130    0.40331085054109
H          -2.49531725988583    1.78231259954105    1.36648381913301
H          -0.18651693293286   -1.41378016243463    0.58004996411842
O           2.25458761608828    0.19234530006871    0.52847545324225
H           2.38463186543031    0.51831957122544   -0.38811503525740
H           1.55231733274281    0.77800272617786    0.88415679811994
O          -0.08796907971902   -1.48994566631906   -2.33264635103929
H          -0.86098578300598   -1.86954691114796   -2.75286528567879
H          -0.38120950086223   -0.62640489907109   -1.95693520447357
O           1.84420488424023    0.94530125608336   -2.01070942635119
H           0.92759787911505    1.12223961649413   -1.73136066426045
H           1.78208427572076    0.23985404834742   -2.65956789722452
O          -1.93817570606660    1.24828051930471    2.96847114461047
H          -1.96247222377451    0.31904044941894    2.70854385027240
H          -1.04623585076172    1.54634853889789    2.73471676631527
N           0.70869218919627   -1.85800983481495    0.21113280316241
H           0.55807533504252   -1.97916610645494   -0.81133491636211
H           0.92576989838233   -2.73201344451778    0.67676892481215
H           1.47259239958084   -1.09939066205167    0.36671131964352
