    23
        -45.38031834  Gyration_radius:  2.32439264684 Dipole_moment: 6.202
 S          -0.48908148336475   -0.71937999803572    1.08249348203427
O           0.08741610837903   -1.82257074464130    0.33311317317693
O          -1.46540820266116    0.03316168085424    0.31153856553961
O           0.57162764521316    0.16511950214384    1.58951194990373
O          -1.24394731986282   -1.29386552584972    2.32191512193432
H          -0.54359238584189   -1.79835035075902    2.78186889083696
H           1.17075738193079    0.92687176848101    0.37415014523347
O          -1.08842764244176    2.46449836598760   -0.63952577557345
H          -1.33148092304356    1.59075017451973   -0.25183491372260
H          -1.42853205041985    3.12426126385237   -0.03350316153554
O          -1.61132461619390   -0.06937100845253   -2.39557928173845
H          -1.73256346449609   -0.21286033147333   -1.43946234325350
H          -1.76945152733548    0.86763034682408   -2.53562322132671
O           1.17458510016521   -2.25581254506270    2.76674843359694
H           1.07168107460499   -2.53335545678527    1.84407450709701
H           1.45737041978870   -1.33433351592916    2.71589496555034
O           0.93301409828704   -0.79788546253034   -1.97326372702185
H           0.06128758908910   -0.62553828324487   -2.39001580086371
H           0.71198300353244   -1.36023004304821   -1.20019356268658
N           1.35798602159383    1.34528335478722   -0.58748650232774
H           1.28343684538575    0.50162934222047   -1.27019029057405
H           2.25776075160705    1.80973090854899   -0.63747803684022
H           0.56490356593387    1.99461657746405   -0.76715262750121
