    23
        -45.37692325  Gyration_radius:  2.39557211616 Dipole_moment: 2.454
 S           1.20626340093053   -1.24970386807507    0.08696822733532
O           1.28551128877389   -0.07844100967846    0.96811346354546
O           2.13134640478095   -1.14616707553198   -1.02045736714308
O          -0.15782459549055   -1.53832109291749   -0.30135212087754
O           1.68250817511302   -2.48616363936330    0.96087542502480
H           2.63321948417783   -2.42719366202615    0.95458988332111
H          -1.38422368590391   -0.39591510599780   -0.85968680505303
O           1.87188275258676    0.95497110091938   -2.57299162713475
H           2.09419571683231    0.15916166392535   -2.03211471766218
H           1.47410198798866    0.61588455325490   -3.37724566350936
O          -0.87621844627917   -1.08867365243548    2.24303459437753
H          -0.04358989647785   -0.59596559981815    2.24345026773241
H          -0.83704934173993   -1.57057966940665    1.40123130950913
O          -2.76699880883130    0.66280139038282    1.55281920066600
H          -3.61583337966069    0.31176547928521    1.82504237431276
H          -2.08694940019190    0.04955403844083    1.92304581710532
O          -1.86438720177687    0.44955756842179   -0.95444990988588
H          -2.34127544295140    0.56904202592835   -0.10163369845536
H          -0.65719809370611    1.38199359710334   -0.78879645924712
N           0.31896535394763    1.80022437412453   -0.58465272887098
H           0.27132922164328    2.76472079400626   -0.27544866201175
H           0.91569103627169    1.68398875299212   -1.44089744176329
H           0.74653347004461    1.17345904647348    0.15055663866978
