    23
        -45.36052939  Gyration_radius:  2.37382629852 Dipole_moment: 4.629
 S           0.30585909547147    0.62893684435930    1.11660924902737
O           0.35895107740315   -0.78239638866416    1.33014560037794
O          -0.35652326795062    1.03364055597601   -0.10720469611697
O           1.69229423373484    1.25939116996523    1.15298870498136
O          -0.42094054701515    1.27906445325803    2.31228224842046
H          -0.65517955131009    2.19756685185669    2.02313743038117
H           2.12617202014972    1.13963569667351    0.20787113566464
O           2.48039851421114    0.82385502429592   -1.17383462185487
H           2.31165859619485   -0.16966246205049   -1.19413214940495
H           1.81473954556958    1.21385020013670   -1.74741867291343
O           1.64547082059749   -1.61016798358785   -1.00690587398984
H           1.34900015817516   -1.61389212420338   -0.08700504780933
H           0.81516593061335   -1.53244879238170   -1.53688280624077
O          -0.76770278814386   -1.01484970161505   -1.95288271532717
H          -1.25765000667226   -1.65465098266264   -1.39597345501101
H          -0.76286536373510   -0.19628362505168   -1.43739385189703
O          -1.06537556053512    3.37021277260346    0.91395387093480
H          -1.99560146391797    3.59533423618160    0.83321929330641
H          -0.86968520164798    2.70680039939127    0.22721736934501
N          -1.69378759783928   -2.56345462797342    0.12484706760978
H          -2.60956737838660   -2.53256183918595    0.55513607228680
H          -1.05290501861825   -2.04775320269424    0.72348817682188
H          -1.39192624636226   -3.53016648462386    0.11873767140991
