    23
        -45.36262723  Gyration_radius:  2.31058572694 Dipole_moment: 1.469
 S           0.61176024106936   -0.39294615997523    1.28023713203114
O           0.03466339554533   -0.74726793639430    2.53484538478665
O           0.35818998624754    0.97644184520579    0.86362118101460
O           0.04367905480738   -1.33290524121907    0.17552863076646
O           2.09812037411985   -0.65763922925128    1.23374488936821
H           2.47263284381884   -0.12244872005345    0.39189629416677
H          -0.91042375918262   -1.53947678928257    0.44287540190533
O          -2.27340887880069   -1.58152903287186    1.20809051246908
H          -2.48484014691984   -0.62212449339688    1.25336369279269
H          -1.92473924356893   -1.80342680974275    2.07877643730620
O          -2.24103781080030    1.08280054791505    1.51584139873882
H          -2.33691292659900    1.31364550776697    2.44209682817316
H          -1.29059551123880    1.17804205594328    1.31484970040407
O           2.73304383104210    0.68558151323285   -0.75139579748446
H           2.24125664639489    1.48596181213111   -0.54119047422071
H           2.20683028672513    0.22945856011056   -1.49957862260374
O          -0.88681701377998    1.37125934420428   -1.54384689477064
H          -0.40181006958370    1.30920011241521   -0.70500674036168
H          -1.81330923125828    1.43377205416616   -1.30318118701873
N           1.15841391915742   -0.45951799819329   -2.48070713326221
H           0.84709930690901   -1.28797457387551   -1.98738525209342
H           1.38254289413450   -0.71046392427447   -3.43452403403566
H           0.37566180173113    0.19155754544297   -2.48895135805964
