    23
        -45.36618273  Gyration_radius:  2.42445302644 Dipole_moment: 6.866
 S           1.26054660908920    1.03831871894440    0.25731055559572
O           1.11101212839408    1.03916895554558    1.69487334876864
O          -0.03453309797410    1.22855361819429   -0.41895546971600
O           1.91830505544376   -0.16793572458567   -0.22951847230885
O           2.13301113351611    2.26663981942578   -0.17221227320696
H           2.96786427327278    2.12037388523811    0.31196813657006
H           0.96603637110171   -1.50061411308671   -0.40955547926976
O           3.79795902063995    0.99976143116403    1.46090879923251
H           2.97549650913052    0.99322584242799    1.97593449129636
H           3.73502565173645    0.22408886262509    0.89172133638370
O          -1.24010955530499   -0.45358491915353    1.28622778196010
H          -0.86027961770309    0.27730145875583    0.75868234805978
H          -0.82566372923013   -0.34385909478643    2.14659554946675
O          -0.97942312434981   -0.44078493746484   -2.02982299226991
H          -0.54345354222777    0.35014347705021   -1.53625178076291
H          -1.96945206991995   -0.46292304846194   -1.63436302841406
O           0.15113137830737   -2.05743535629830   -0.49456226149421
H          -0.37973627844217   -1.82584872498164    0.28833027895643
H          -0.50244095843571   -1.24693661304644   -1.54657030012682
N          -3.22615539567081   -0.50915269513221   -0.82736568053483
H          -3.82652428380070   -1.30904858420440   -0.97968439535283
H          -3.77762613570451    0.33472927890359   -0.91237582230984
H          -2.85099033189378   -0.55418152706262    0.11868532942723
