    23
        -45.36139913  Gyration_radius:  2.36457022874 Dipole_moment: 3.954
 S          -0.43551174459323    1.06018416243531    0.11563514824703
O          -1.81511304666477    1.40773646560254    0.22854113541472
O          -0.19885137933346   -0.19812851499523   -0.57723708052331
O           0.23688026539902    0.98973769299222    1.49706244873515
O           0.32547695811652    2.17012901024171   -0.58369490021898
H           1.32454519109460    1.88562704982398   -0.77047221034670
H          -0.18286726273825    0.25721591682738    2.06352242175530
O          -1.00847728338876   -0.79666503347138    2.81755622998375
H          -1.52542943529481   -0.34309513031572    3.48707851500744
H          -1.65359407231776   -1.09746370181260    2.11051416380324
O           2.26491047084860   -1.00716058853153    0.14371729863947
H           2.48933017158136   -1.79537072777412   -0.35503444004217
H           1.31429656547973   -0.84778552263171   -0.00058133940224
O           2.60535770997142    1.31309322154594   -1.14519350884689
H           2.33346188001023    0.90679132267915   -1.99404675764672
H           2.72049586831136    0.55334559851294   -0.53268956456905
O           1.07291733251045    0.03453863071383   -2.95161986757922
H           0.52861567750733   -0.15982200438620   -2.16488988909659
H           0.52770579678581    0.56514828110807   -3.53443799167769
N          -2.62666897911316   -1.25895238666607    0.78878508395221
H          -2.62924819881651   -0.27965114912811    0.50784507132452
H          -3.57778477093886   -1.60548891658777    0.76290826115997
H          -2.09044770441708   -1.75396369608998    0.08673180191884
