    23
        -45.37657396  Gyration_radius:  2.3699730532 Dipole_moment: 4.882
 S           1.22156130127847   -0.52700737057435    0.37373362102195
O           0.33753626340345   -0.22933815690999    1.51306462495886
O           1.43984551934799    0.63725208216085   -0.45200165545997
O           0.68268619156503   -1.64384444284508   -0.40074199904636
O           2.59868022302910   -0.96233955939178    0.95923900484998
H           2.36290117168025   -1.60927170369515    1.65414469170625
H          -0.44468306489823   -1.11727891255577   -1.25466977806964
O          -0.44580478785504    2.61986780090496   -0.35877011169838
H          -1.17276869018762    2.16415891246226    0.08139924689698
H           0.34176768435629    2.07707661490962   -0.17930498706426
O          -2.01995873010836    0.45958469402836    0.67256399057985
H          -1.12927745453106    0.21294179634811    1.03944213716990
H          -2.65472601387239    0.26467686558308    1.36366033014282
O           0.08714884550095    1.46237710856414   -2.71190410414307
H          -0.22696504158115    2.15132066739720   -2.08703859112819
H           0.92601968802530    1.18471786249874   -2.31361421820504
O           1.34774261419548   -2.16982451551374    2.95735722087630
H           0.75528622996702   -1.49438262334364    2.56739768226723
H           1.61025616823964   -1.83820157561889    3.81910229935162
N          -1.24211426578653   -0.56372457426818   -1.72155867200342
H          -1.80123535777681   -0.17734935710277   -0.93916844321055
H          -1.79902396471807   -1.14995267842263   -2.33343137753260
H          -0.77487452927283    0.24854106538543   -2.24890091226014
