    23
        -45.36787876  Gyration_radius:  2.259730262 Dipole_moment: 7.924
 S           0.04461011752136   -1.65964915465578    0.40039812228405
O           1.25691425496739   -0.83921188532051    0.42563999221629
O           0.05746787028494   -2.67804763891588   -0.60714284091599
O          -1.13132562366646   -0.63431046464606    0.02019937676337
O          -0.33496823405549   -2.07724970832245    1.74691285117062
H          -0.77645520962034   -0.83823415909261    2.34727412099618
H          -0.99673259937568   -0.52186584317970   -0.94196647557941
O           2.28688640329957    0.12819723316859   -1.82760554171566
H           2.09310521859034   -0.31828567519885   -0.97688024483817
H           2.37507177872910    1.06186583860114   -1.62371683821561
O          -0.16848840612111   -0.70225656273077   -2.44704957954857
H          -0.12186804708685   -1.62974903547809   -2.15841988839079
H           0.77500871591330   -0.42024960959987   -2.45687776141726
O           0.48111662143974    1.54008802942762    1.13010429278838
H           0.08373063641890    1.83814116409536    0.29171196146550
H           0.94243824740610    0.69849806062957    0.89254647086142
O          -0.50657312572563    1.97803374577464   -1.42466104873676
H          -1.36836161638516    2.31597998879972   -1.67172064192325
H          -0.37371676518742    1.16477526387989   -1.93286637803176
N          -1.09819750701020    0.16811213486498    2.66391490900308
H          -0.49757783432000    0.84881310189901    2.06408416760407
H          -0.94167249795619    0.30523782558268    3.65747721787574
H          -2.08041238804975    0.27136736048615    2.42864376619565
