    23
        -45.36458710  Gyration_radius:  2.37917749585 Dipole_moment: 2.772
 S          -0.44467912580038   -0.28871948169389    1.74879378948512
O          -1.32793768516960   -0.02008554714056    2.83315864507471
O           0.89038224378907   -0.72009094027093    2.05810699142897
O          -0.30175388344417    0.99332684464678    0.86576661091871
O          -1.12944228601968   -1.29059630606629    0.80982320700688
H          -0.51761372625162   -1.59379980863923    0.01908451372334
H          -1.28561608534364    1.27243855612200    0.72233875636351
O           0.11515704383779    0.20470112520668   -2.72331294379596
H           0.70088088541349    0.76973287063083   -2.16379836400556
H           0.50741451732113    0.19042456340037   -3.59749760202930
O           0.38015549557634   -1.89380206574170   -1.10296034434668
H           0.18150756396274   -1.19774590741945   -1.77378100641049
H           1.27577404818230   -1.69264065932590   -0.77084074661395
O           2.63374831647647   -0.97083041103426    0.13112322013104
H           2.04516098761497   -0.84736457072311    0.91468453810648
H           3.40099265025089   -1.45100157666419    0.44668619518364
O           1.74350868526105    1.41219711119610   -0.99476572873053
H           2.29651016126225    0.67182977597870   -0.70109513776705
H           1.09768750028189    1.53665627073304   -0.28578148053655
N          -2.82428918051228    1.28288728381923    0.82056404214353
H          -2.82812950879342    0.82784246763441    1.73033432001866
H          -3.25304436636105    0.66285297944996    0.14606363734868
H          -3.35637426153187    2.14178743591157    0.86730488731611
