    23
        -45.37159147  Gyration_radius:  2.31507367879 Dipole_moment: 7.190
 S          -0.60752019227808    0.72656937110343    0.40135315862069
O          -1.98131220397837    0.62951738047910    0.87920575878989
O          -0.37238545538056   -0.19759190244209   -0.71816010068572
O           0.33913086601995    0.42764141061297    1.48652799842903
O          -0.38460586533402    2.15476237846142   -0.09576688740769
H           0.55471952003745    2.25914468088933   -0.52933571082135
H          -0.42185513721069   -0.72740225921084    2.41265735686152
O           0.42538406128926    0.81778036862193   -3.05665256295331
H          -0.32474187122899    1.29355127085484   -3.41674677173225
H           0.09673147369924    0.35958807331525   -2.25577660798062
O          -0.93846221787627   -2.59251502850716    0.19708112325615
H          -1.59674860451582   -2.96508651961052   -0.39220985674610
H          -0.67100623290701   -1.73167997628067   -0.21034828249375
O           1.85417398369016    2.21961264939686   -1.25277111248582
H           2.32074812226160    1.48071910619749   -0.79984983346070
H           1.54429936952884    1.84092587115483   -2.10114970898261
O           2.46753968088762   -0.07456201391837   -0.03201425014221
H           2.06146309827865   -0.69248864335381   -0.64601114520202
H           1.79074944148835    0.09041834757193    0.65354371683840
N          -1.33560112770950   -1.25085942671363    2.43526915927318
H          -1.64910799833807   -1.52948970958208    3.35838050650356
H          -1.24563360558508   -2.03622423199193    1.74449624538125
H          -1.92595908480931   -0.50233121706477    1.93827779715890
