    23
        -45.37159148  Gyration_radius:  2.31496419735 Dipole_moment: 7.191
 S          -0.96275626228293    0.29044154314805   -0.21729163134818
O          -2.22630651903843   -0.34987114647308    0.12698578912435
O           0.09503887315958   -0.70986872486065   -0.42531942679399
O          -0.55038004332130    1.22247049245588    0.84290127595087
O          -1.16708594381211    1.05683012150654   -1.52411994224066
H          -0.27277424232142    1.46443916201681   -1.86338874478809
H          -1.07541399895711    0.52010936622236    2.25943023972570
O           1.09516322501911    1.85090396271710   -2.30329495310146
H           1.58122120212974    1.90146422260051   -1.44888879536403
H           1.37220391530997    1.00049675943725   -2.70225345376752
O           0.24988304038616   -2.06897233624649    1.81554166859738
H           0.13435476285648   -2.99294689087113    1.58685169914682
H           0.27925209606706   -1.58191019795530    0.95497485365302
O           2.01697501267421    1.41429949160132    0.16445912774568
H           2.21604784031964    0.47666416892908    0.09442862679530
H           1.11082773720657    1.45951463484391    0.52785217951815
O           1.31732741241547   -0.78843787471802   -2.79920391278953
H           0.67404384990483   -1.12360986394252   -3.42567839139824
H           0.90034659049469   -0.86298092725512   -1.91607908775950
N          -1.59606844437012   -0.34040733420435    2.57159099105740
H          -2.16567066284910   -0.48138307278015    1.67057499800126
H          -2.12917718256530   -0.23363699914222    3.42743337112525
H          -0.89705225839509   -1.12360857701165    2.58249351890567
