    23
        -45.36572000  Gyration_radius:  2.33710711557 Dipole_moment: 7.548
 S          -0.19458407525046   -0.03790048032475    1.55672243888324
O           0.98919064918423   -0.23664820280175    0.69709640606086
O          -0.33286855946045   -1.05068488219248    2.55731979807697
O          -1.42875650675635   -0.10612969451624    0.57104280294414
O          -0.21955126532053    1.35157805280679    2.01890647798599
H          -0.29776484819291    1.99924575875968    0.71408120448834
H          -1.72391318584089   -1.06122821236299    0.59170494135378
O          -0.51363369317869   -2.69303391434264   -1.65097722223455
H          -0.29698523757015   -1.74968913968828   -1.75382695973104
H          -1.28812572264939   -2.85527440588954   -2.19269276046574
O          -1.69091719872142   -2.64285171015728    0.81597499687000
H          -1.12019025204469   -2.88840691603056    0.06266611719233
H          -1.12550380039252   -2.50361011697321    1.59167022104631
O           2.45916680517778    1.87670571897640    0.12037145568974
H           2.85661410926200    2.21946584387455    0.92259492137720
H           2.06225000861564    1.00841054365412    0.37430086862983
O           0.29766076477861   -0.01413824853304   -1.76496690109256
H           0.57639598740205   -0.19706431639259   -0.82624834971383
H           1.11363443607368    0.02641251894030   -2.26898297190657
N          -0.10764268338210    2.34420923726710   -0.31479533417671
H          -0.33545946374386    1.56110063089671   -0.95099560653855
H           0.93670066433087    2.45920140623361   -0.32276750204315
H          -0.61571690229858    3.19033051876035   -0.54819902269217
