    23
        -45.37886224  Gyration_radius:  2.27360665703 Dipole_moment: 5.389
 S           1.66529256738500   -0.14297895386126   -0.78682769070336
O           0.50285714929425   -0.03364225563071   -1.65249405816635
O           1.82804599520496   -1.49051004311986   -0.25375019231161
O           1.69422124919485    0.86047852354463    0.25940078960250
O           2.91551945879210    0.12810843402199   -1.71671862898897
H           3.65022087982415    0.06023150888163   -1.11499294034337
H           0.62751045737357    0.75629963976390    1.62589011882946
O          -0.13744885697112    0.50131519476782    2.18114786463203
H          -0.28601561600913   -0.91293567777343    1.74986648523993
H          -0.91958255560883    0.93087335830876    1.74580002110022
O          -2.04827687054079    1.35954500472061    0.57995152809688
H          -1.50500650352449    1.93828301927708    0.00338136851773
H          -2.22585721249748    0.56930254373008    0.05295225625625
O          -1.79870119238614   -1.05336647116113   -0.94366844548578
H          -0.94868605107948   -0.66954933446553   -1.27318856565831
H          -2.27930216683821   -1.34011669675488   -1.72157491143824
O          -0.16323256286344    2.48768965973260   -0.99614363478124
H           0.56643235300313    2.57053014531701   -0.37287714844368
H           0.02408874496521    1.65294686646164   -1.45851646489905
N          -0.30506941512441   -1.85477710950500    1.18365720479209
H           0.60551769627101   -1.85192624759028    0.63515643948040
H          -1.07258609856305   -1.79462144332869    0.49513832077755
H          -0.38994144930788   -2.67117967530405    1.77841028390168
