    23
        -45.35889008  Gyration_radius:  2.41523123442 Dipole_moment: 3.768
 S           0.40245385274384    1.16419527312321   -0.71119062761346
O          -0.67955311892560    0.49140876218133   -1.34712077926955
O           1.57084830216538    0.34991855802702   -0.45242340805951
O          -0.04911948737066    1.81692495495299    0.60443669763642
O           0.82474588729704    2.38357823856238   -1.55278822178056
H           1.70326576265741    2.66465906388215   -1.18884481546735
H          -0.43969720195602    1.12100936624622    1.25048195813175
O          -2.93293967229279   -0.41297432117848    0.10886291838731
H          -2.33029314440374   -0.00219447044474   -0.52522531481078
H          -2.54012902602291   -0.25999978062230    0.97434726963874
O           0.58131522119817   -1.75000338672251    1.01948982131738
H          -0.02878119986358   -2.19139694691498    0.36418165350681
H           1.12453698161294   -1.14846830067804    0.48784996306904
O          -0.89785537474115   -0.00473610100963    2.13432518317654
H          -0.34145510245945   -0.77869095251670    1.76329728580845
H          -0.61870034425049    0.12318166817209    3.04346533991275
O           3.17536938880696    2.44759824760832   -0.45510459355439
H           2.87180371820863    1.54216414493324   -0.25561069975180
H           3.93188803087829    2.36722962051216   -1.04148783023425
N          -1.13762280174012   -2.51463876166774   -0.85942653213297
H          -0.86063766252927   -1.83331902139240   -1.55851893836875
H          -2.02053405518893   -2.17784978864603   -0.47958941672769
H          -1.30890896382244   -3.39759606640602   -1.32340690281174
