    23
        -45.36679583  Gyration_radius:  2.43166115115 Dipole_moment: 5.479
 S           0.17626414524618    0.52050703568534   -1.26457447773670
O          -0.62010198825981    0.16511658941898   -2.40614333961443
O           0.46848081074843   -0.65567426216278   -0.41527767778462
O          -0.41232356046774    1.58329545611104   -0.44101442528364
O           1.54725301511446    1.04939185259653   -1.78342488285895
H           1.98734184483022    1.47849538633090   -1.00914496020359
H          -0.86352700684957    0.97420366041413    0.80669795844439
O          -3.36303527147210   -0.76400803031627    0.61587740849946
H          -3.93121148432299   -0.11741205956279    0.19308996478794
H          -2.92432562346096   -1.25649627723479   -0.12833469027489
O          -1.96093879765284   -1.83323628161723   -1.33918354285051
H          -1.18508277331328   -2.28004501938352   -0.99071604892777
H          -1.58483476854567   -1.09456587352350   -1.86852896102795
O           2.61007361602652   -0.67291162140195    1.06027953634640
H           3.23002880861698   -1.29862031758699    0.68187373573472
H           1.80329003023318   -0.71636841611171    0.48767262833255
O           2.85346692150265    1.88882640717018    0.34493500001229
H           2.84936457313654    1.00238791325897    0.77081376322944
H           3.76501430902286    2.09084340787236    0.12445266259628
N          -1.07430327841421    0.18171698648825    1.53230148827774
H          -2.05436452246947   -0.16914517033069    1.34134364751669
H          -0.91512611341489    0.44659473591318    2.49749901882103
H          -0.40140288582279   -0.52289609202820    1.18950620397629
