    23
        -45.37910999  Gyration_radius:  2.2854243017 Dipole_moment: 4.298
 S           1.55558798833700    0.89970567470855    0.71905027017939
O           1.56746772700509    0.76875023814852   -0.73195749516302
O           1.18720085230674   -0.35403413952616    1.37136060841484
O           0.76862564306962    2.02417483496994    1.17038979759858
O           3.05030875949129    1.17860573723430    1.16615084267103
H           3.15462790574908    2.10534045411123    0.97579130155692
H          -0.91253358656180    2.12314100233827    0.82446761705287
O          -0.90106795401553    0.91296950809431   -1.82613734705344
H           0.03707265372408    0.97360048297433   -1.56661699133310
H          -1.10111461238402   -0.03250987468460   -1.85148455492291
O           1.45324760211642   -1.85002637165816   -0.87538226400913
H           1.61815472283804   -0.90208085389093   -1.06352073095916
H           1.57254794402164   -1.89137253698671    0.08180145884315
O          -1.13715761163573   -1.88297373010594   -1.23560594010025
H          -1.40679063851667   -2.62443039216183   -1.77840509438660
H          -0.14172069092736   -1.93492722944905   -1.15966385540280
O          -1.78890362576787    1.82458593236423    0.49935655605672
H          -1.71308814687270    0.39859253865128    0.94698521417341
H          -1.64848440479456    1.69149685036719   -0.46718440088837
N          -1.40784413468426   -0.63074072081611    1.16719787738825
H          -1.91621044974687   -1.02392182895632    1.95111895903255
H          -0.36974260848304   -0.56924654328650    1.37078123864126
H          -1.52018334425730   -1.20469904245603    0.31150695256852
