    23
        -45.35891163  Gyration_radius:  2.31505330447 Dipole_moment: 6.616
 S           1.46726203608783   -0.84282609817607   -1.21700925358636
O           0.21970833020000   -0.12594253411897   -1.55541865742100
O           2.12777349238216   -1.36315008924572   -2.36542946639868
O           0.99801237858469   -2.05546767162120   -0.28881450753417
O           2.27296824090441   -0.04159256221867   -0.29969746562348
H           1.57694167379662   -0.13704317845143    0.91485837783790
H           0.28287532028990   -2.50423141663611   -0.75970984328419
O          -1.32195311892275    1.58831593848914   -0.38778508583252
H          -0.65696171499635    1.02412311275726   -0.86136891420192
H          -1.92288591762242    1.90282742639180   -1.06464615117283
O          -1.31176827310058   -2.19791154995394   -1.65266381698813
H          -0.84134669194206   -1.33888677700725   -1.77740376948392
H          -1.41475179890243   -2.58177558562466   -2.52456805300589
O           0.94929038283466   -0.08879505912977    1.77418838021884
H           0.74045904624259    0.95128659362088    1.86531759252067
H           0.06794084964479   -0.52081233277745    1.52223840904235
O          -1.42322268998914   -0.79739321963008    1.00751249115348
H          -1.61794121616515    0.05315210738272    0.57437719050165
H          -1.49500861000202   -1.47211346908367    0.32287401485609
N           0.39581457618626    2.39508744737745    1.75652747886883
H           0.00818246515427    2.85417183738488    2.56963390970354
H          -0.30220976329639    2.38316480126356    1.01315729483265
H           1.20082100262427    2.91581227900292    1.43382984499928
