    23
        -45.37030164  Gyration_radius:  2.26560604469 Dipole_moment: 2.654
 S          -0.10683506726868    1.09021869747386   -1.48538291528054
O           0.64874889626044    0.28139732288432   -2.41749853113434
O           0.65881508467476    1.55229734903381   -0.34802141500665
O          -1.34244530325776    0.41775489658988   -1.06674564863358
O          -0.56053066034444    2.38120580229584   -2.27850867476050
H          -0.71693612387993    2.02429771990998   -3.14664152249841
H          -1.24830013850605   -1.02653819857619   -0.58635964305257
O           1.33197376252760   -1.93430689987384   -1.19313752901663
H           1.83236564120433   -1.54697349650066   -0.45415479737258
H           1.17339467792703   -1.18372372676586   -1.81225089064855
O          -0.96968052994849   -1.92399655286496   -0.18613557088926
H          -0.03889317698569   -2.10357436798698   -0.63049753780348
H          -0.73973210236746   -1.68915021461155    0.84975843505047
O          -0.29254627453294   -1.15099067303881    2.07569113380891
H           0.63667603413374   -0.93504216168313    1.87607531250487
H          -0.76724959017520   -0.26434483937199    2.08547500435759
O           2.01185721702285   -0.28772967533277    0.88821910983232
H           2.83846058353919    0.08782123910417    1.19457373730001
H           1.52845619390151    0.44746891569488    0.42955618978073
N          -1.39632152477973    1.20702441365359    1.68237698058970
H          -0.67399158997754    1.91519524272764    1.73601055811918
H          -2.23916293092698    1.58127690463369    2.09923302343130
H          -1.56812307809224    1.06041232254754    0.68836518130131
