    23
        -45.36861669  Gyration_radius:  2.36510911213 Dipole_moment: 7.784
 S          -0.35561249605015    1.05112389417472    0.24306264486589
O          -0.28725840137464    0.52108583029999   -1.12053588341056
O           0.79057383840432    1.83527378791133    0.61191153046029
O          -0.42151058882834   -0.22729662885904    1.17081112604858
O          -1.64472820450636    1.71356002607964    0.47598708841337
H          -2.59845097733945    0.70380205135163    0.45297808170268
H           0.51831719496920   -0.34532390302154    1.52538334158315
O           3.12575754150969   -0.97283980220372   -0.49067908133383
H           2.92752353330708   -1.70376374672223   -1.07678881231419
H           2.91075286297083   -0.15194538945215   -0.99549048167273
O          -1.60525500678889   -1.69522169450919   -0.96685325308600
H          -1.07642720254386   -0.88240908621846   -1.18784740909933
H          -1.04851774062955   -2.19198233469665   -0.36152527000347
O           2.22316304160027    1.22461983887270   -1.70182550877090
H           2.26250142695341    1.90790808665685   -1.02449927067061
H           1.28534518329060    0.95465465848519   -1.69761346552709
O           2.02718618630184   -0.22332905187701    1.84186421148257
H           2.52211581892857   -0.61258893460825    1.08818498070901
H           1.99003519319808    0.72710303915651    1.65481521659853
N          -3.26949242128839   -0.20260893818292    0.40948144463104
H          -2.70084932343710   -0.91325759349895   -0.15287226899032
H          -4.14528880424901    0.02082426594270   -0.05201173097387
H          -3.42988064442778   -0.53738837505162    1.35406277935506
