    23
        -45.38014046  Gyration_radius:  2.28488633921 Dipole_moment: 4.830
 S          -1.69826017846670    0.35361742452991   -0.72239486601035
O          -1.37059203217067   -0.64674201693028   -1.72228613587619
O          -0.74732587418961    1.46089684701192   -0.72990649278890
O          -1.88954426968118   -0.22172750336912    0.59405916058396
O          -3.08443425187117    0.99183912671485   -1.13808180457279
H          -3.69223962164079    0.27593080247075   -0.98415032832258
H          -0.61152793891807   -1.30561622106119    1.04996066344511
O           1.72889359038288    0.31507521064948    1.88262298995656
H           1.00111497928369    0.94141031926836    2.10668583426797
H           1.87817633405753    0.53434795870087    0.42758453239561
O          -0.53364929222490    1.73502270383597    1.94354818965352
H          -1.17111982569540    1.02091511421289    2.06791130479918
H          -0.60275479651487    1.92643585354309    0.99322042196386
O           0.93751683660377   -1.78476478378478   -1.56804204786771
H           1.03166673985693   -2.41986322403965   -2.27928567475027
H           0.02716906404508   -1.39362161033661   -1.66598658888459
O           0.23405342115681   -1.77074207392445    1.19744136856094
H           0.52956090242162   -2.06181012526126    0.32583582248295
H           1.28611138175277   -0.56529743868472    1.85117944328688
N           1.75396159134634    0.63959695933214   -0.66406806952698
H           1.71925813145436   -0.30456004756433   -1.08827092503294
H           2.47583482325678    1.21519044705801   -1.08230861108727
H           0.79813029574742    1.06446627768063   -0.79526819669286
