    23
        -45.37326468  Gyration_radius:  2.2856829167 Dipole_moment: 5.854
 S          -0.30005431735453    1.30515058834506   -0.52609674134233
O          -0.28350184682556    1.42627852177529   -1.95817458410118
O           1.00891372141473    0.99167701543817    0.04222659368003
O          -1.24035727203150    0.08820593153628   -0.13355660953872
O          -0.93649281893660    2.42803727651464    0.16489169983269
H          -1.26631012018803    1.86922245095914    1.41473712936396
H          -0.73257356791342   -0.76677695724788   -0.12478927819340
O           0.44596397395079   -0.78261876535408   -3.18101534296579
H           0.67400656624761   -0.54344845730656   -4.08059491787328
H           0.10867138306630    0.04440958898893   -2.76538738405037
O           2.14821945269311   -1.14110088186284   -1.12319698030536
H           1.71673468421790   -1.10300963291191   -2.00013723326055
H           1.99349991382355   -0.26098897861724   -0.73201581899621
O           0.10372321803981   -2.14186338203320    0.09037525983274
H          -0.26175461264166   -2.80834452133962   -0.49402126932801
H           0.97882870166942   -1.86513656231579   -0.32891517537085
O           0.56573296445285   -0.32434803658539    2.24038508127576
H           0.93311470553321    0.19747744659775    1.48467945765471
H           0.39764906172960   -1.19771990782172    1.86382687495227
N          -1.48422379534332    1.29285373662935    2.34857332212656
H          -2.37003935090802    0.81377207966192    2.21728297170948
H          -1.51375268846326    1.90308626358996    3.15923299712472
H          -0.68599793604166    0.57518517351749    2.42168992762133
