    23
        -45.38031818  Gyration_radius:  2.32445477446 Dipole_moment: 6.197
 S          -0.64217611698340   -1.23026056177701    0.03142604428801
O          -1.06070365715315   -0.73720139264908    1.33245432817605
O           0.80367740536503   -1.25710369187740   -0.11975867783814
O          -1.26576445786908   -0.43943256664782   -1.04114498011032
O          -1.13656404700046   -2.70168280301404   -0.13154035608366
H          -2.10205979342688   -2.61671271888388   -0.00077493035247
H          -0.59763464111634    0.96434337456343   -1.04108506006743
O           2.48587835237886    0.16683578438167    1.46163984850516
H           3.08926345390481    0.44259895305651    0.76711778009496
H           1.92779114718777   -0.52449047779651    1.06153404411447
O           2.19311250101751    0.38345528212071   -1.64712322334284
H           1.73813190273600   -0.31307219544265   -1.11714488997528
H           2.34057648520006   -0.00011149116448   -2.51273621321768
O          -3.44026303268628   -1.48435384576865    0.29670117332749
H          -2.93995637149824   -1.11911320366295    1.04177610637062
H          -3.19234375777099   -0.93567072270734   -0.45773372098722
O           0.21496600632854    1.57006489987294    1.69989313419522
H          -0.35044735127564    0.77013812246857    1.75560654963486
H           1.12263487738789    1.22107463716155    1.83236703013765
N           0.04122291808907    1.79974695848948   -0.87146266409521
H          -0.32325295327417    2.65325203955849   -1.27946796844248
H           0.96329380946170    1.52984143270917   -1.27161272648161
H           0.13061732099011    1.85785420700391    0.21106937215322
