    23
        -45.38031817  Gyration_radius:  2.32444957824 Dipole_moment: 6.209
 S          -0.30511110675311    1.23289145954329    0.56212501024962
O           0.61485130993714    1.68635564472595   -0.46718544280313
O           0.28886708908575    0.24630247055663    1.44972907792610
O          -1.53940300357551    0.71350229314956   -0.04699930659538
O          -0.70537569168393    2.45172522035427    1.45101125093831
H          -1.07440721674472    3.07860716326680    0.79712508927920
H          -1.19348360781111   -0.63635010831579   -0.73565298077143
O           1.59001654218339   -0.50749939713736   -1.61679077152569
H           2.15662643142544   -0.82406819187261   -0.88052665256492
H           1.34880125411013    0.40440038634271   -1.34668736765880
O          -0.31933960070935   -2.31980929212940    1.47764309502137
H          -0.99317051050002   -2.50342012219657    2.13375028322232
H          -0.09657040765957   -1.36427080905618    1.57944351171154
O           2.51051094488614   -1.17419173801025    0.81023606923129
H           2.21109132198867   -2.01574581998164    1.16331609675477
H           1.88089351125691   -0.51206339020322    1.14865651013735
O          -1.47579418981666    3.33326778949229   -0.91551346494532
H          -2.00597247625100    2.52771639121385   -0.95227028641889
H          -0.57827904126966    3.04857085662481   -1.14499486008168
N          -0.72033376399906   -1.53261211914644   -1.06401024299586
H           0.26160946295753   -1.21216804465647   -1.40532719608474
H          -1.25001916874846   -2.00566753904388   -1.78750246676534
H          -0.60600808230940   -2.11547309350655   -0.20957495527307
