    23
        -45.36096733  Gyration_radius:  2.26619904053 Dipole_moment: 1.892
 S           1.39998641920958    0.29466572809080    0.02344906975451
O           2.56941737689131   -0.11038924858531    0.72110095794715
O           0.21291292260846    0.41004195894839    0.84968697815705
O           1.08256569772490   -0.63729999869307   -1.15860302939484
O           1.62623088921037    1.63942596175282   -0.68756927338187
H           0.85815668475277    1.71762934158609   -1.34580155968664
H           0.42526765907723   -1.40896634254770   -0.88925019591402
O          -0.53854310653775   -2.34513913696393   -0.33684210742660
H          -1.35319909238954   -1.83146181720024   -0.27876290556603
H          -0.13794713040205   -2.40359477747029    0.58106191553350
O          -1.27782297069417    2.75189755928781    0.60490700778077
H          -0.74123182408141    3.37920556581341    0.11766840376845
H          -0.67615737453462    2.06137352397766    0.91652295309524
O          -2.00923327701296    0.23860612282939   -0.55764199161119
H          -2.56620014160575    0.96283785691029   -0.25197848498791
H          -1.24647262659012    0.24466242071858    0.05898536370335
O          -0.37700702962979    1.50653576017783   -2.27584590298127
H          -1.08411988610821    1.07334289982956   -1.73695743727959
H          -0.08318535387063    0.84416496310842   -2.90649320360178
N           0.81721003334042   -2.18177886679647    1.92982188827917
H           0.30788494575353   -1.61191604264671    2.59452784405127
H           1.59505008765684   -1.61429777500643    1.60206607936292
H           1.19643708739486   -2.97954565718490    2.42594762067798
