    23
        -45.36368320  Gyration_radius:  2.39583064199 Dipole_moment: 5.232
 S          -0.82578069001296    0.53678765107964    1.08527391188598
O          -0.95437202102850   -0.66491859604917    0.24672629882054
O          -0.32234142036420    0.21898761729553    2.39602735246627
O          -2.26994886335340    1.13995055770670    1.21333319703877
O          -0.04044988934366    1.56249141568751    0.39952020283508
H           0.17486944239011    1.60871525545079   -0.99247775008837
H          -2.75982823088664    0.46771005338927    1.72393085785678
O          -1.16128267697768   -0.49707906451790   -2.31922129460976
H          -1.20509398914756   -0.60132550875564   -1.32991031374213
H          -0.77970743591625   -1.30906692553708   -2.65959155474028
O          -2.62001830977802   -1.15500977322447    2.51119152616852
H          -1.76728901098556   -0.83110923997853    2.84751220412755
H          -2.39896359961477   -1.67254679207868    1.73067999808617
O           0.41358040625753    1.46761256624467   -2.02199532809209
H          -0.24272205155558    0.72981625135030   -2.30587780542507
H           1.35226414948144    1.02521434532722   -1.98425735496590
O           2.63517440730004    0.30340827883915   -1.68571121675641
H           3.34833917410113    0.91966038538919   -1.50876177507199
H           2.41528593766884   -0.14172222682954   -0.80315073497421
N           1.89477268402712   -0.70256156259129    0.62371069632901
H           2.38055501125068   -1.45228497835256    1.10213682216117
H           0.94233544042543   -1.01562239779019    0.44877938646830
H           1.79062153613934    0.06289268788875    1.28213267420071
