    23
        -45.36728302  Gyration_radius:  2.40510379866 Dipole_moment: 1.835
 S          -0.25370143672333   -0.04203742284134   -0.94657285874992
O          -1.27355406715056    0.90624437175834   -1.29096415985950
O          -0.74698327868626   -1.21284735047532   -0.25949473629524
O           0.82570659098668    0.62866745664823   -0.07892134865326
O           0.52381597075485   -0.44231781347486   -2.19347058547415
H           1.42435866188174   -0.82926661354181   -1.86731320838877
H           0.38119529314743    1.17619460182287    0.72484096134790
O          -0.36572795841882    1.88505027870505    1.69799721933461
H          -1.13431926885184    1.27951975509573    1.82769642954796
H          -0.72477936409924    2.63221102982596    1.17022622524677
O          -1.43036694961046    3.36922348200289   -0.24606623923982
H          -0.98779633414839    3.98872252349041   -0.82807258819603
H          -1.48498735828426    2.52395185842530   -0.73319307040445
O           2.64976930962743   -1.27679549707313   -1.13450570971444
H           2.28747704371044   -2.00342842815487   -0.54106374101307
H           2.80563573794234   -0.51960287812681   -0.56191504890652
O          -2.36715174062421    0.17440983619566    1.36696047984534
H          -1.87866250714756   -0.49061944416118    0.84952009057652
H          -2.95008034096903    0.61176906501707    0.74099235433869
N           1.38087995574455   -2.96865534031498    0.44191445205662
H           1.55974472435664   -2.98518140719192    1.43808519440714
H           1.26224801074947   -3.92487857414232    0.13247182576270
H           0.49727930584405   -2.48033349958771    0.29084807237926
