    23
        -45.37018632  Gyration_radius:  2.33787547769 Dipole_moment: 8.579
 S           0.34949911157343    0.87157645480270    0.51732836708255
O          -0.85542794091857    0.12727801412498    0.12238988341138
O           0.51326411190825    2.08413536626446   -0.22877983716770
O           1.54536693415904   -0.10767344245344    0.23560439364454
O           0.39541849382799    1.05148001599494    1.97394046075118
H           0.75265756423240   -0.20399502642297    2.45932649638404
H           1.37910545403766   -0.43039732116126   -0.71084316611669
O           0.44743932739851    1.62949347565496   -2.88606932091726
H          -0.52723324568688    1.61453794621711   -2.88893747771939
H           0.66527933147327    1.99660873582674   -2.00999432579885
O           0.81601372312808   -0.82549650973222   -2.08954731462329
H           0.77709250750918    0.06035961818067   -2.55199538384158
H          -0.09958034789166   -1.05650568519575   -1.90631579482265
O          -2.08589803272949    1.46133031671584   -1.87744803537198
H          -1.70500726326206    0.95161419772348   -1.13717145519443
H          -2.20759152387835    2.35001721203896   -1.53781155251836
O          -1.16318058845396   -2.10975760131885    1.38603841602902
H          -1.09403328458250   -1.28853479975788    0.82789686715763
H          -2.05300151645543   -2.10549544178728    1.74323821794354
N           1.00029603225002   -1.28863842927586    2.64031316583490
H           1.79421240896737   -1.48241965356685    2.03241549984377
H           0.15019168090638   -1.80072235496520    2.27499340259231
H           1.20511705250737   -1.49879510776370    3.61142850336845
