    23
        -45.36154684  Gyration_radius:  2.30863384295 Dipole_moment: 2.565
 S           0.83761138405356   -1.01709418603666    1.28977246249644
O           0.33252589507942   -1.26023888332746   -0.04287582512724
O           0.13358358979709   -1.62677326541437    2.35658390576672
O           0.89296469622745    0.50507117150480    1.53510485543490
O           2.33008403766774   -1.44145293392953    1.31997243356580
H           2.71992378209893   -1.11053395250788    0.47009072579733
H           0.99585981784495    1.04145702019347    0.67469303528615
O          -1.44005898749613    1.47257120374853   -0.94089364760968
H          -1.71869399662979    1.11995620642358   -0.06051201322409
H          -1.58157826322898    0.71834378848699   -1.53868059766761
O           1.05532276491504    1.84272630217337   -0.62075565122119
H           0.06220298221092    1.71333259828188   -0.84208554229522
H           1.15183825701050    2.77378512885497   -0.40975087253094
O           2.65125258286706   -0.42557582911054   -1.06845121499242
H           1.78904115020872   -0.85843525248370   -1.16344916020801
H           2.45179298067466    0.52046922409803   -1.09217545970077
O          -1.55698678739521   -1.04372371958083   -1.98491526507913
H          -0.96532517716334   -1.23130932976770   -1.23674126492637
H          -1.21141753821628   -1.53019278941298   -2.73467950805989
N          -2.15241014081988    0.13867840768678    1.32400226173361
H          -2.58566624241713    0.62143019379958    2.10209937693777
H          -1.36783705993702   -0.38870572496367    1.69187491480771
H          -2.82402972719140   -0.53378538877154    0.97177207081321
