    23
        -45.37657389  Gyration_radius:  2.36943884065 Dipole_moment: 4.900
 S          -0.44234200029665    0.92197296686511    0.93088400984033
O           0.85110493393942    1.27741997602822    0.32367833988119
O          -0.40456292437607   -0.38527656679270    1.54317935423567
O          -1.50778035058839    1.02018920270469   -0.06560144311253
O          -0.72882739239402    1.96635448778288    2.05161870196804
H          -0.54884276634004    2.82542726197057    1.62001179835649
H          -1.44154134462982   -0.20436356895697   -0.94458110689238
O           1.42609493683262   -0.36195033884487   -1.60556008019520
H           2.02237034413404    0.08221139611396   -2.21025786875500
H           1.25289636822376    0.28145592237712   -0.86758576272429
O          -1.11017938800094   -2.83125653642800    0.48194754801273
H          -0.13772164126436   -2.95986519333633    0.51681635397108
H          -1.25652700125537   -2.15452478599021    1.16062802700801
O           1.47551595849704   -2.15464574516279    0.62716432463711
H           1.02310446023837   -1.46325263407347    1.14111948102562
H           1.75318825234188   -1.72216949554689   -0.18886062941320
O           0.37738061750549    3.84635842993430    0.54824161822733
H           1.11765700954984    4.28312601125180    0.97564719702984
H           0.70102801417694    2.96857324688841    0.25832923653038
N          -1.18606214140588   -1.10242627748772   -1.48190972994686
H          -0.20234621216387   -0.97243944161199   -1.78036877940430
H          -1.80480257954299   -1.25858344340121   -2.26994331290174
H          -1.22880515319405   -1.90233485422262   -0.76459729736155
