    23
        -45.36822376  Gyration_radius:  2.35756619676 Dipole_moment: 7.534
 S           0.85225954375358    1.00602148483336   -0.90284363202069
O           1.26264427230114    0.17796430260936    0.23550811354637
O           0.77552950613108    2.40259364033043   -0.60163100298046
O          -0.59982056476993    0.47919808203603   -1.29492518320111
O           1.62484978653109    0.67041088728830   -2.10430183863513
H           1.19622878887881   -0.62886597443391   -2.37756056113627
H          -1.10887514087933    0.24874380560723   -0.48298273781652
O          -1.99952937494051   -0.40861067531063    0.76070381102016
H          -1.72667986243520    0.09488715568578    1.57894108283591
H          -2.92184036505169   -0.18691414075420    0.62049960254964
O           0.12867325967187   -2.13555470913873   -0.00505496605685
H           0.67156892034544   -1.34527311794460    0.24223045059281
H          -0.76652493645596   -1.88848190163605    0.26273865759393
O           0.92576894254591    2.06239783796870    2.07276612607823
H           1.23934190236890    1.26920519584321    1.59963716676609
H           0.81371800118425    2.69381053533425    1.34803388575332
O          -1.33072270788809    0.98477843694224    2.86278238133618
H          -1.08018548894847    0.49144830379963    3.64565446555582
H          -0.51614167559894    1.49303987786226    2.59837127713693
N           0.74907121671750   -1.65548206244817   -2.51040599816301
H           0.44388807600325   -1.96241702452510   -1.52845690647733
H           1.42802840067034   -2.29875516334839   -2.90451719786108
H          -0.06125051014473   -1.56414477660148   -3.11518699641531
