    23
        -45.37675826  Gyration_radius:  2.29625497549 Dipole_moment: 6.051
 S          -0.20274437205231    0.81571507395519    1.13373440770973
O           1.16484275825495    0.84015584090393    0.60115849071450
O          -0.54149283243879   -0.48665877540215    1.67713274823258
O          -1.15644578691527    1.25380796038360    0.12331335455621
O          -0.21432673551936    1.85778523671098    2.29870130604514
H          -1.13834846025073    1.79622398623004    2.61025193967813
H          -1.31910947224399    0.42813803248366   -1.35010913189447
O          -2.71049868694771    1.00167357050063    2.36111209310265
H          -2.29558496376664    0.12830471915332    2.39258628991712
H          -2.72073341698816    1.23470706192806    1.42342097979279
O          -0.41303050929347   -2.13000031625387   -0.43491531799414
H          -0.59032432665560   -1.65446768310396    0.40032865242962
H           0.55405772997653   -2.18522698429274   -0.47667599262020
O          -1.07476856712300   -0.18755938117959   -2.07811976954598
H          -0.98817667447579   -1.06037276101189   -1.61622918872399
H           0.31681109918190    0.20499099631997   -2.19016885981690
O           2.28582480792102   -1.47258061190724   -0.14803905402006
H           1.93221710793935   -0.67409570295091    0.29734425622626
H           2.71987231680396   -1.98679798654592    0.53426403833471
N           1.37175577984030    0.50967486224260   -1.98387849954856
H           1.98088897731543   -0.30862559585360   -1.99246018709640
H           1.33062780486726    0.84018554820302   -0.97583544367578
H           1.70868640253066    1.23502288946864   -2.60691712181607
