    23
        -45.35854969  Gyration_radius:  2.49398652587 Dipole_moment: 1.755
 S           0.05448167050481    1.24038822636486   -0.86016635193031
O          -1.11814361182476    0.40335522031406   -0.97663583371261
O           1.29363302828320    0.53381904405408   -0.75218448452391
O          -0.12211336041821    2.22008914796626    0.29553381102765
O           0.11790056259000    2.17490765834775   -2.08783436020662
H          -0.81951963751155    2.44206009086589   -2.26972693504419
H          -0.15248110430166    1.73356540615275    1.22507148226620
O          -2.47116241181417    2.26340250251797   -2.27630994989160
H          -2.32967544687936    1.48770627178059   -1.70183300333548
H          -2.85842769422772    1.93851082341732   -3.09313979013195
O           0.18812542509509   -1.96413480686050   -1.44950202859344
H           1.00959781814815   -1.46383954476231   -1.48910206888389
H          -0.49053253242956   -1.28934135927296   -1.30450231817099
O           1.78532547807110   -0.56197869561878    1.73796934699427
H           1.86206540822364   -0.22152272578530    0.83364294094296
H           1.39228476926554   -1.47298361504645    1.64157409183251
O          -0.06258836101942    1.02555641728880    2.48582048302971
H           0.30435571555971    1.62019531385718    3.14451773286220
H           0.66743819587282    0.34231191086743    2.28019559927481
N           0.57870499885305   -2.90448212830075    1.26155750420204
H           1.09901967079149   -3.76856196601049    1.34306933394458
H           0.37604076601382   -2.75300805212445    0.27132355709980
H          -0.30432930654469   -3.02601515013544    1.74066125078494
