    23
        -45.35854963  Gyration_radius:  2.49447001851 Dipole_moment: 1.749
 S          -0.09157707913261    0.47127569154151   -1.43263193252637
O          -1.29437430209778   -0.05927749531166   -0.83176328720361
O           1.10839330395930   -0.23832265220746   -1.11203011301524
O           0.04147718524200    1.95431869234103   -1.10118664406199
O          -0.26998953253877    0.48337283394365   -2.96647466693929
H          -1.21190165660299    0.75009331573335   -3.12440831627192
H           0.20421812306127    2.11702916306952   -0.07753856940645
O           0.55013617110293    2.27734324068442    1.32093288306087
H           1.08272738737444    3.07083428101061    1.41505808674763
H           1.18406006195014    1.49010953024764    1.46244001983794
O          -0.23184063728581   -2.43648996896839    0.03789982266667
H           0.57952649510910   -2.20541954997373   -0.42575379068720
H          -0.82975615128312   -1.69993672245330   -0.15436225326494
O          -2.82756028990369    0.88826857411222   -2.76348561721254
H          -3.40374739929386    0.21920242374058   -3.14172557098872
H          -2.59207394434876    0.58507695236539   -1.86664342539220
O           2.10986670702239    0.26376496590221    1.41596696801656
H           1.99245283250506   -0.00839604794771    0.49311502772048
H           1.66713588438741   -0.44723002907297    1.95641372384997
N           0.72890489484403   -1.66491902420494    2.65867508360064
H           0.31081555603112   -2.08829809904863    1.82768781775884
H          -0.02479085722943   -1.33019696647961    3.24519965051943
H           1.21789724684434   -2.39220308900232    3.16461511286731
