    23
        -45.37129863  Gyration_radius:  2.26136667209 Dipole_moment: 5.258
 S           1.80214523768655   -0.19099778509502   -0.02862718452067
O           1.77388889267213   -0.35313216557172    1.39917741633706
O           1.37393105653644    1.12875336768302   -0.47897753361687
O           1.06652327866545   -1.23385272542342   -0.74823792741023
O           3.31118262445693   -0.35044911146071   -0.47710311058422
H           3.27447644118341   -0.26259709875608   -1.42421945807305
H           0.20592909337104   -2.80222196653249    0.86024284137742
O          -1.97464787488344   -0.67200805827120    1.09442025611220
H          -1.53540122509744    0.17406669230684    1.34265137310185
H          -1.73780790247964   -0.75204340222345   -0.30357782275616
O          -0.37087231969803    1.42703476398040    1.52414694448141
H           0.28738974528504    1.41545294491756    0.80251549176511
H           0.13110959736351    1.17004036739583    2.30257672377989
O           0.01066307331364   -2.31945400622470    1.66769818837522
H           0.71500823985545   -1.64201927296198    1.72506775378496
H          -1.37770365764041   -1.37895357745348    1.44702470424478
O          -1.34621878855132   -0.72657645880582   -1.30542037550784
H          -0.36901104980486   -0.99162301330567   -1.17131211268746
H          -1.31445220979289    0.31403881884608   -1.55174007795566
N          -1.07321520690487    1.76396853486292   -1.68673859008044
H          -1.15159394227560    2.20994065060191   -2.59078309570105
H          -0.09500809035482    1.77600575033795   -1.38831992041997
H          -1.60631500292283    2.29662674094733   -1.01046448412508
