    23
        -45.36721141  Gyration_radius:  2.28334483796 Dipole_moment: 4.646
 S          -0.44535655765514   -0.40070235691372    1.24386569710619
O           0.34566469368234   -0.72498415206459    2.39685435986685
O          -0.11835183427821   -1.25309500862790    0.08736681952748
O          -0.31003282794870    1.01889962977317    0.83630965859998
O          -1.93607634946511   -0.61539495962459    1.57431834455675
H          -2.41914625859877   -0.13778266626720    0.82168319513562
H           0.42589734838193    1.26215409020186   -0.27243583306767
O           2.39360218983658   -0.67269903462596   -0.53449822239964
H           2.78356217342853   -0.43521820119504    0.34066357335258
H           1.57103055583414   -1.15666034299971   -0.30670569373511
O          -0.77832632054784   -0.37879114565781   -2.24160948698811
H          -0.61769862195280   -0.81053825217625   -1.35566046414095
H          -0.53449551801764   -1.03020247478135   -2.90178370628238
O           2.88148365752598   -0.09549071667876    1.99368279275885
H           3.40113630116335   -0.63794385799631    2.58970706363428
H           1.94200749461789   -0.25139925967695    2.23859370573572
O           0.98303587721532    1.26186114146009   -1.22607132754548
H           1.72764920777255    0.52869626485007   -1.01264171275987
H           0.34104448805506    0.79465491216956   -1.83406911140397
N          -2.88149896065069    0.75826598998052   -0.41677827752940
H          -3.86456279777872    0.95095010724420   -0.55602653448971
H          -2.48741798384890    0.40580016130429   -1.28217591999996
H          -2.40314994674227    1.61962010227337   -0.18258891991906
