    23
        -45.37309202  Gyration_radius:  2.37850118333 Dipole_moment: 2.140
 S          -1.54913435394830   -1.40596638076990   -0.58288600543483
O          -1.56445632580232   -2.27359456246500    0.58132657013935
O          -0.38314010833091   -1.58323445281958   -1.43286692091339
O          -1.76080499240421   -0.01275063635064   -0.23660919530866
O          -2.79440529217135   -1.86288489953244   -1.46773213770831
H          -3.42513409177888   -2.14412023686992   -0.81194731268483
H          -1.14036244604248    1.47931921198282   -0.73205267886353
O           2.54636827199136    0.24348097232799    0.62100165271659
H           1.92378650926419   -0.41244442871222    0.98530705458635
H           2.32990921166997    1.06319092706285    1.07758775795889
O           0.22968216679949    1.69888130608230    1.76308309150840
H          -0.56017994646167    1.99285997980403    2.21953763266247
H           0.15293610770853    0.72682544082950    1.70658370909200
O          -0.47827026195186    2.19809617802882   -0.83994947776750
H           0.59702267078646    1.26522881315415   -1.49853468264729
H          -0.13603696223742    2.30681681508491    0.06636506160293
O           0.40108436489873   -1.05883183875786    1.71114660970081
H           0.52328687831065   -1.55290073648429    2.52530623701345
H          -0.34556242038727   -1.51182498984305    1.23893501836056
N           1.23213550873684    0.42884558330827   -1.70651081480244
H           1.69333150043161    0.49697717220687   -2.60589531059949
H           0.59310001846085   -0.42577465369704   -1.66626719363724
H           1.91484400244458    0.34380540644225   -0.91492868495952
