    23
        -45.37890672  Gyration_radius:  2.27980044738 Dipole_moment: 1.700
 S          -0.19789280618944    1.66769901662003   -0.33644116758887
O          -0.48120457278660    2.16778625098915    0.99011049202337
O          -1.09043286909063    0.57691848792219   -0.71771238213993
O           1.19838841738998    1.29364270451345   -0.51439361475864
O          -0.49149059996620    2.84316020492856   -1.34896547917895
H          -0.46544873556681    2.41205322883931   -2.19842400670240
H           1.66801454429736   -0.01686616088649    0.55653748320795
O           1.69375854449303   -0.26478361378849   -2.62369350529265
H           2.63977121760325   -0.26436970210027   -2.77668529115273
H           1.54101156746021    0.35214105455978   -1.87856926764711
O          -2.33781619647112   -1.23197199604179    0.82311038630559
H          -1.96475463147731   -2.01842976271120    0.41210776757898
H          -2.15342792786082   -0.50964505351600    0.19123545015907
O           0.09349527961294   -1.81508610680374   -0.97480552471671
H           0.69081335751713   -1.69830970937457   -1.72821126538840
H          -0.40439391712080   -0.97339711722261   -0.95971730068972
O           1.54849187750272   -0.85797166180190    1.03934128410749
H           0.38461137968660   -0.46637278474734    1.98726002751014
H           1.11848615147441   -1.44217416859747    0.37034338315022
N          -0.52965129117749   -0.04954540834897    2.37478306235965
H          -1.32976923996907   -0.59531194192673    1.95973439689867
H          -0.57456540283082    0.92450131788362    1.96470934493961
H          -0.55599414648039   -0.03366705828188    3.38834572700943
