    23
        -45.36669911  Gyration_radius:  2.29072149786 Dipole_moment: 5.002
 S           1.49808520772002    0.29170635382582   -0.02331012476671
O           2.36418474486023   -0.61666422436393   -0.69738744934962
O           0.67453265784427   -0.30561976710565    1.01320179106150
O           0.55729359773422    1.00103548652177   -1.01971503612304
O           2.29040404340973    1.45162115446375    0.57377321427513
H           1.67539125608951    1.87817668407761    1.26704177868782
H          -0.13339147001059    0.31730890025536   -1.44607838575937
O           0.54637820794894    2.20114102357002    2.25283662112754
H           0.39476311785697    1.30998395262907    2.58421270911641
H          -0.23564641296641    2.41504680337672    1.68344942972905
O          -1.93146425990987   -0.40859990048841    0.77487088740335
H          -2.32789684578871   -0.94716106021611    1.46104254635137
H          -0.95597433752680   -0.43070207755075    0.92239409479971
O          -1.42784705834666    2.32492987620633    0.48686631840309
H          -1.87668504752469    1.47083689495758    0.58833672441715
H          -0.87709103605966    2.23651954510336   -0.30066086318750
O          -1.10402296148243   -0.67026796132384   -1.81923769870633
H          -0.56324329512544   -1.51384901695101   -1.76757200806802
H          -1.68797225895283   -0.67304035983312   -1.04193535220354
N           0.55185720955339   -2.68902268523575   -1.43472369665276
H           0.84474187252704   -3.25670459983802   -2.22034016633886
H           0.39218976033788   -3.30846954546545   -0.65000648923741
H           1.33141329780610   -2.07820546660173   -1.18705884519593
