    23
        -45.34995821  Gyration_radius:  2.30944427853 Dipole_moment: 4.437
 S           0.05805491307363   -1.34108905102079   -1.69370631269886
O          -0.30099939399131   -2.57554079240545   -2.28940026905665
O           1.38938916759246   -0.85214989436342   -1.87921381858059
O          -0.14549696947398   -1.42546662729497   -0.13595182454103
O          -0.91903112798330   -0.21938910218263   -2.12921838712630
H          -1.69845999961854   -0.21660280625082   -1.48593574521993
H          -1.07925730183466   -1.50667487932859    0.08235060844424
O           0.89564696085114    1.69197963426848   -1.06795465636610
H           0.58987393291820    2.20273457564896   -1.81955525122400
H           1.11360890445398    0.80818851876457   -1.41429686054083
O           2.60211891086997   -0.10719819542711    0.57794576700767
H           2.53305419456484    0.81835570641190    0.32509904243410
H           2.33302256471782   -0.60513481472165   -0.20488485036245
O          -2.57452036645455   -0.26028624650218   -0.22290627541106
H          -3.45553710298235    0.10609022076900   -0.32007188286226
H          -2.02188304121638    0.44265662490377    0.29588936851691
O          -1.04118011775924    1.40637376282345    0.90280102107931
H          -0.53972906985239    0.89537360108596    1.59853404598405
H          -0.36774010481199    1.61591420968876    0.22981867463698
N           0.46019479097685   -0.05886313723981    2.55105461607869
H           1.25576606841302   -0.18743080227971    1.92212443381958
H           0.10201372689994   -0.97999428037968    2.76835099378380
H           0.81109046064062    0.34815377505756    3.40912754219843
