    23
        -45.36215455  Gyration_radius:  2.3237331375 Dipole_moment: 3.497
 S          -1.17629303066761    0.83760796660419   -0.19297016742431
O          -2.38735067256604    0.98192943448166    0.54124685184598
O          -0.88899261861374   -0.52110733584151   -0.61719996681283
O           0.03496844638675    1.32717924666605    0.64799198132886
O          -1.15290610104002    1.77358012652194   -1.38936060949699
H          -0.18953894539056    1.74237457624308   -1.77641877009863
H           0.41297618459442    0.52311230847282    1.11672923251744
O           1.20194482428268    1.48000977683367   -2.22313629216909
H           1.75439509923890    1.28815662792442   -1.44183725876056
H           1.14324626771723    0.61965624591471   -2.67875970711196
O           0.78108771263700   -1.18498536775674   -2.56487022295786
H           0.35240373742750   -1.72682811588430   -3.22847713302260
H           0.11269944243562   -1.01921191228509   -1.86604034931832
O           0.58698390532615   -0.98969359681808    1.59638560683057
H           0.12205221579588   -1.31612913960889    0.81116038681963
H          -0.12193319906873   -0.92978063128706    2.29161553333882
O           2.49952891247805   -0.13916843383138   -0.44495691195373
H           2.21836549629597   -0.46751041308473    0.41506275250786
H           2.25411640728500   -0.81071493385007   -1.09162847191377
N          -1.63842243570014   -0.47102921069257    2.95738790827957
H          -2.28560934383162   -1.20780786141272    3.21097991388833
H          -2.05386693258541    0.04665232018712    2.18255696567561
H          -1.57985537243687    0.16370833249974    3.74453873800608
