    23
        -45.35965618  Gyration_radius:  2.38496864519 Dipole_moment: 5.410
 S           2.03454946438942    0.07243542082344    1.23856917941851
O           0.85928282238536    0.94769675964751    1.10364400197190
O           2.87098700706588    0.08439897432035    0.08141443159163
O           1.59759675591401   -1.25878722458975    1.67773533796649
O           2.86909373824071    0.64471541811456    2.45587236713611
H           2.34970625907863    0.38979732176162    3.21209079947851
H           0.35651662072724   -1.77830473748832    1.18789218685572
O          -1.65735582487711    0.20597093487833    1.17412196230631
H          -0.77997536500636    0.62969441050586    1.31108360760313
H          -1.96923730761271    0.56471028167654    0.30497458783963
O          -0.58846374018837   -2.00282236756983    0.77568585302918
H          -0.45439190098984   -1.98190737378387   -0.23128781702079
H          -1.16327689914845   -1.12267047358279    0.99468071823547
O           0.80866998128144    0.80651416143536   -1.51226262614769
H           0.77682679339367    0.97924366052143   -0.54312129687000
H           1.75228777039030    0.67005555995760   -1.65993897238653
O          -0.27563928980259   -1.58976317191758   -1.73415577694525
H          -1.07728285744742   -1.48629810652262   -2.24931464089359
H           0.17296233634996   -0.70376709900043   -1.71657091375380
N          -2.14026497585065    1.31610936715279   -1.24850324061063
H          -2.40430960268184    2.26779007742099   -1.02477095866303
H          -2.74907333930126    0.99997169800554   -1.99309783324415
H          -1.18920844629961    1.34521649822498   -1.60474094689623
