    23
        -45.37875847  Gyration_radius:  2.31764427564 Dipole_moment: 3.877
 S          -0.44125416764810    0.86387296033145    1.03718747227428
O           0.89227778329405    0.97586763548051    1.60544753994795
O          -0.79476245540404   -0.53735621117072    0.80890031777539
O          -0.58500435322197    1.63811258155235   -0.19345963646245
O          -1.43295514530566    1.44346239864406    2.09044890337136
H          -2.26222798841076    1.56461364488108    1.58246836570682
H           0.36360388725122    1.07107101658355   -1.51926894623586
O          -3.16840635782494    1.87008740836174    0.15329716726279
H          -2.28459502637848    1.79940274503308   -0.26298425509017
H          -3.47171286267585    2.76758125788589   -0.00114340361322
O           0.89952495305354    0.46069120772819   -2.06789856893753
H           1.90049097630580   -0.00501047771572   -1.01160478520386
H           0.30365892235660   -0.30917500032860   -2.19771147346623
O          -0.78062715431547   -1.58096130945660   -1.66836193133458
H          -0.40455651631983   -2.43791544834040   -1.45438235181384
H          -0.99224947820448   -1.16980975321914   -0.80746855144067
O           1.02616095109890   -2.42891358202131    0.78807922336843
H           1.12271780527922   -2.78906119899246    1.67074138259364
H           0.28585942918103   -1.77515784855163    0.84631342343221
N           2.38918438040209   -0.29361119685984   -0.08796477221165
H           3.39460251170724   -0.16892296930098   -0.12001338854315
H           2.11209998170513   -1.26990440035697    0.15144793851642
H           1.92816995409328    0.31103652983617    0.65793032011027
