    23
        -45.38305546  Gyration_radius:  2.32091696779 Dipole_moment: 3.590
 S           0.94118243156933    0.87550593250236    0.54596864190315
O           1.38114342211204    0.66999583339640   -0.82728940603981
O           0.76069559458081   -0.38129512135906    1.25381343943843
O          -0.28103374295939    1.68643831118038    0.57955330557229
O           2.05369609580645    1.66459759233718    1.30517641426069
H           2.13059773698333    2.48320092012978    0.77576021334890
H          -1.47719975026351    0.77128958234178    0.14975777072271
O          -1.49358258494868   -1.78892113727113    1.69936037715773
H          -1.16800533770892   -2.59121248039404    1.27657509157672
H          -0.69174124440073   -1.25315974360475    1.85206952165969
O           1.52177114439747    3.36556723615051   -0.64403468876808
H           0.61059468832814    3.32014141136854   -0.32819374587254
H           1.63994673089218    2.56063765600429   -1.17007949506503
O          -0.39400899578728   -0.93549708465660   -1.97860058527318
H          -0.09944764229135   -1.75700160406211   -1.54114583859580
H           0.31045859091439   -0.29062106016850   -1.75022641784949
O           0.65151649399423   -2.64039724534478   -0.13979879186059
H           1.52090491470723   -3.00543825440568   -0.31007462405383
H           0.80028192449436   -1.82015793716540    0.38163502568644
N          -2.08095005220233   -0.02871774447923   -0.20303351304981
H          -3.01813075547984    0.27809573279539   -0.43840027366522
H          -2.07310609211325   -0.76092900909013    0.55621067132370
H          -1.54558359062379   -0.42212179620533   -1.04500309255585
