    23
        -45.38305541  Gyration_radius:  2.32090114915 Dipole_moment: 3.591
 S           0.24435808039007   -1.37390392710131   -0.05766527055624
O           0.31709840519174   -0.66496566484537   -1.32475455629173
O          -1.07066712752251   -1.25742241806118    0.55800996264002
O           1.28835898396728   -0.92014788321158    0.86770941686361
O           0.50927191731515   -2.88059444239874   -0.36868983024982
H           0.43459400318897   -3.29451155064852    0.51416707403089
H           1.25055248852018    0.64518882584031    0.90525698054669
O          -1.59971146923919    1.33604012009653    0.77628209363246
H          -1.79750421179686    1.48826048353732   -0.16747306159062
H          -1.55061265110542    0.35759311089570    0.84388621967041
O           0.12768304898553   -3.00232752925544    2.24183647362691
H          -0.65569379361629   -2.48861198788392    1.99439509467124
H           0.83945465331474   -2.35257754024370    2.29802216615913
O          -1.58201997980838    1.09178097901662   -1.92953669681979
H          -0.94172092481771    0.36624595363454   -1.75522050624665
H          -2.33910627871145    0.67964648165089   -2.34799151437597
O           1.28374430026783    1.79301995864442   -1.85782777239607
H           0.46018049787743    2.11919321982501   -2.23694834625356
H           1.17770704010569    0.82244120680137   -1.84684399316387
N           0.99071285595897    1.66787181606405    0.78039753262746
H           1.22015246521147    1.90992027011946   -0.22035085592055
H           1.46930921930442    2.26545289210651    1.44497336527556
H          -0.07614153298139    1.69240763541794    0.88836602411963
