    23
        -45.36875580  Gyration_radius:  2.37407996375 Dipole_moment: 8.069
 S          -1.11150558772285    0.51226085183937    1.24428143005509
O          -1.17042215233123   -0.65601818776814    0.37220004151821
O          -1.08930990963463    0.22989686728478    2.64950907878443
O          -2.51561111694245    1.25857952777039    0.96150400191972
O          -0.10700990849707    1.46127293739873    0.77811083078287
H          -0.49134865248966    1.51242415610256   -0.82608039105645
H          -2.84774081423571    1.48515604785750    1.82530136204887
O           0.80155128411817   -0.11261040385184   -3.11433064029819
H           1.07743527257712   -0.66221080749113   -2.31783788276154
H           0.60032728142859   -0.73933601662286   -3.81066752763838
O           1.02661189652580   -1.44873201152031    2.65349859053627
H           0.66527457838001   -2.21401901818717    2.20156845245846
H           0.27551260521056   -0.85593159814224    2.82752595323966
O           1.14678902592483   -1.44857665759632   -0.92685993671190
H           1.77164442083484   -0.93114040961614   -0.36264396914940
H           0.29588945009877   -1.37190875350903   -0.46613835830068
O           2.32154209544326    0.13577424183809    0.84398544040522
H           2.14204282675556   -0.42954934343567    1.61689092098107
H           1.61880153096676    0.80282492489956    0.85615440672682
N          -1.00016428328915    1.01908486530242   -1.60651341526830
H          -1.74554015219045    1.58949021732931   -1.99154482362997
H          -1.36090990044482    0.19651945226513   -1.06564031184823
H          -0.30385978048004    0.66674913784494   -2.34227328278905
