    23
        -45.36818752  Gyration_radius:  2.28554093167 Dipole_moment: 6.138
 S           0.42374239884677   -0.06255950347056    0.72887387176732
O           1.86027254628434   -0.08971484522613    0.67925250516401
O          -0.16977529991008   -1.38449254462858    0.92733587508657
O          -0.12020583513254    0.42058596517232   -0.67640615899864
O          -0.14143893445423    0.91620768441946    1.66230685858342
H          -1.41469891291915    1.27054686057221    1.10173937001037
H           0.52429420355663    0.07004235048889   -1.36428496260082
O          -2.58164735297774   -1.16047777757648   -0.00871029883823
H          -2.47072620346052   -1.43695940924272   -0.92136182721036
H          -1.71388593225219   -1.36216553009313    0.43061181803587
O           1.75650441212289    2.62663699786837    0.38789788773371
H           2.01959624319165    1.69731056037073    0.44062917501236
H           1.19111622937000    2.75316001560872    1.15319274684197
O           1.69194339714059   -2.69148078634759   -0.47108524651761
H           0.94742840267158   -2.37014427189765    0.07487662550636
H           2.47418178706439   -2.49888198420911    0.05276821676307
O           1.68343705147535   -0.63517447910340   -2.16532642851842
H           1.71596173444205   -1.50039199711799   -1.68732423080710
H           2.44663926459435   -0.13924164756954   -1.85541976066011
N          -2.34625681348584    1.39977591224321    0.51903752200551
H          -2.10267156762254    1.92975150401895   -0.31390236243006
H          -3.07888564446544    1.85206807962479    1.05660589208957
H          -2.59492518385751    0.39559884600425    0.24869293203189
