    23
        -45.37875864  Gyration_radius:  2.31729890314 Dipole_moment: 3.874
 S           1.08796995087083    0.01045508203606   -0.91385608103447
O           0.71942007834624    1.31263647848380   -1.44513797796464
O          -0.06701840466556   -0.88704538359197   -0.88509320599736
O           1.69872604896451    0.10603280590150    0.40995152929890
O           2.14209728530432   -0.59507154219618   -1.88907325790629
H           2.52382629599755   -1.34025611917097   -1.37984364235023
H           0.64117499381289    0.66091093807824    1.65606980342340
O           2.98980381181749   -2.14427564498937    0.06763567324531
H           3.90685438599302   -2.07762002205188    0.34314456119441
H           2.51958175420148   -1.39067044507161    0.48032395515509
O          -2.52124340061399    0.02092490062098   -1.10133433454643
H          -1.62197620146513   -0.39091625001510   -1.07859092863654
H          -2.78136044974513    0.02227118099807   -2.02355052121124
O          -0.19528651900106    0.87115311664395    2.12181203701361
H          -0.66785626231842    0.01024256512033    2.13765142742655
H          -0.89478864215056    1.67008564123379    1.02322954164612
O          -1.31779669108943   -1.45391364275681    1.42614263681990
H          -2.22073199243070   -1.43659120998177    1.10045867753962
H          -0.75501607403092   -1.42714924420437    0.62766617820306
N          -1.24245062044198    2.06249507317450    0.07433841931974
H          -1.98642562744054    1.43515492291154   -0.29997113263997
H          -0.41754043058681    1.93154372879590   -0.58663799079177
H          -1.53996327924536    3.02960307005575    0.13466464272794
