    23
        -45.36818755  Gyration_radius:  2.28566037694 Dipole_moment: 6.139
 S          -0.05277272147598   -0.18791315477222    0.82228035039954
O           0.83740540983670    0.93715967498439    1.10682156071404
O           0.47257920250113   -1.45050219426175    1.26589552520243
O          -0.17642385097954   -0.21967375321923   -0.75496921953180
O          -1.42200989710501    0.09733776870914    1.26100610889921
H          -1.96939752524579    0.94488861550710    0.23970798265744
H           0.58438128188931   -0.78777068365211   -1.08635063812239
O           1.86829928425199   -1.68336811652761   -1.26648952203139
H           2.47374229664981   -1.24078953844876   -0.62175777020796
H           1.58384712099006   -2.49603687699827   -0.83853714001111
O           3.09193641374011   -0.44924102285365    0.75326307399471
H           2.37098678782492    0.18726653440358    0.92860061445005
H           3.00912089328851   -1.10424002723385    1.45144236907607
O          -1.84347366057736   -2.57313166907489    0.34405029069741
H          -0.95816297389328   -2.39973250566556    0.69302858665273
H          -2.40741150813076   -1.96218040545298    0.82373405738277
O           0.14858856446681    2.76077097042843   -0.60873817268249
H           0.46711924182857    2.17794247099188    0.12991785946570
H           0.74284775238351    2.58381064000980   -1.34167292088114
N          -2.19651245060468    1.58259920235165   -0.63537584223717
H          -3.02523718348768    2.15151513678112   -0.49448657629121
H          -2.29177807810879    0.96279960830723   -1.43586716335140
H          -1.30767440006167    2.16848933567924   -0.73550342424513
